1

   Abaqus 2021                                  Date 18-Jul-2022   Time 11:17:55
   For use by UNIVERSITY OF BRISTOL under license from Dassault Systemes or its subsidiary.

                                                                                 
                                                                                 
 STEP    1     INCREMENT     1     STEP TIME    0.00    


                        S T E P       1     S T A T I C   A N A L Y S I S


                                                                                          

     AUTOMATIC LOAD CONTROL WITH -
          A SUGGESTED INITIAL INCREMENT IN ARC LENGTH           1.000E-02
          AND A TOTAL ARC LENGTH SCALE FACTOR OF                 1.00    
          THE MINIMUM ARC LENGTH INCREMENT ALLOWED IS           1.000E-15
          THE MAXIMUM ARC LENGTH INCREMENT ALLOWED IS           5.000E-02

     LINEAR EQUATION SOLVER TYPE         DIRECT SPARSE

     MODIFIED RIKS METHOD IS USED - AMPLITUDE REFERENCES ARE IGNORED

     THE STEP ENDS WHEN LOAD PROPORTIONALITY FACTOR EXCEEDS    1.00    

 CONVERGENCE TOLERANCE PARAMETERS FOR FORCE    
     CRITERION FOR RESIDUAL FORCE     FOR A NONLINEAR PROBLEM          5.000E-03
     CRITERION FOR DISP.    CORRECTION IN A NONLINEAR PROBLEM          1.000E-02
     INITIAL VALUE OF TIME AVERAGE FORCE                               1.000E-02
     AVERAGE FORCE     IS TIME AVERAGE FORCE    
     ALTERNATE CRIT. FOR RESIDUAL FORCE     FOR A NONLINEAR PROBLEM    2.000E-02
     CRITERION FOR ZERO FORCE     RELATIVE TO TIME AVRG. FORCE         1.000E-05
     CRITERION FOR RESIDUAL FORCE     WHEN THERE IS ZERO FLUX          1.000E-05
     CRITERION FOR DISP.    CORRECTION WHEN THERE IS ZERO FLUX         1.000E-03
     CRITERION FOR RESIDUAL FORCE     FOR A LINEAR INCREMENT           1.000E-08
     FIELD CONVERSION RATIO                                             1.00    
     CRITERION FOR ZERO FORCE     REL. TO TIME AVRG. MAX. FORCE        1.000E-05
     CRITERION FOR ZERO DISP.    RELATIVE TO CHARACTERISTIC LENGTH     1.000E-08

 CONVERGENCE TOLERANCE PARAMETERS FOR MOMENT   
     CRITERION FOR RESIDUAL MOMENT    FOR A NONLINEAR PROBLEM          5.000E-03
     CRITERION FOR ROTATION CORRECTION IN A NONLINEAR PROBLEM          1.000E-02
     INITIAL VALUE OF TIME AVERAGE MOMENT                              1.000E-02
     AVERAGE MOMENT    IS TIME AVERAGE MOMENT   
     ALTERNATE CRIT. FOR RESIDUAL MOMENT    FOR A NONLINEAR PROBLEM    2.000E-02
     CRITERION FOR ZERO MOMENT    RELATIVE TO TIME AVRG. MOMENT        1.000E-05
     CRITERION FOR RESIDUAL MOMENT    WHEN THERE IS ZERO FLUX          1.000E-05
     CRITERION FOR ROTATION CORRECTION WHEN THERE IS ZERO FLUX         1.000E-03
     CRITERION FOR RESIDUAL MOMENT    FOR A LINEAR INCREMENT           1.000E-08
     FIELD CONVERSION RATIO                                             1.00    
     CRITERION FOR ZERO MOMENT    REL. TO TIME AVRG. MAX. MOMENT       1.000E-05

     VOLUMETRIC STRAIN COMPATIBILITY TOLERANCE FOR HYBRID SOLIDS       1.000E-05
     AXIAL STRAIN COMPATIBILITY TOLERANCE FOR HYBRID BEAMS             1.000E-05
     TRANS. SHEAR STRAIN COMPATIBILITY TOLERANCE FOR HYBRID BEAMS      1.000E-05
     SOFT CONTACT CONSTRAINT COMPATIBILITY TOLERANCE FOR P>P0          5.000E-03
     SOFT CONTACT CONSTRAINT COMPATIBILITY TOLERANCE FOR P=0.0         0.100    
     CONTACT FORCE ERROR TOLERANCE FOR CONVERT SDI=YES                 1.00    
     DISPLACEMENT COMPATIBILITY TOLERANCE FOR DCOUP ELEMENTS           1.000E-05
     ROTATION COMPATIBILITY TOLERANCE FOR DCOUP ELEMENTS               1.000E-05

 EQUILIBRIUM WILL BE CHECKED FOR SEVERE DISCONTINUITY ITERATIONS

 TIME INCREMENTATION CONTROL PARAMETERS:
     FIRST EQUILIBRIUM ITERATION FOR CONSECUTIVE DIVERGENCE CHECK              4
     EQUILIBRIUM ITERATION AT WHICH LOG. CONVERGENCE RATE CHECK BEGINS         8
     EQUILIBRIUM ITERATION AFTER WHICH ALTERNATE RESIDUAL IS USED              9
     MAXIMUM EQUILIBRIUM ITERATIONS ALLOWED                                   16
     EQUILIBRIUM ITERATION COUNT FOR CUT-BACK IN NEXT INCREMENT               10
     MAXIMUM EQUILIB. ITERS IN TWO INCREMENTS FOR TIME INCREMENT INCREASE      4
     MAXIMUM ITERATIONS FOR SEVERE DISCONTINUITIES                            50
     MAXIMUM ATTEMPTS ALLOWED IN AN INCREMENT                                  5
     MAXIMUM DISCON. ITERS IN TWO INCREMENTS FOR TIME INCREMENT INCREASE      50
     MAXIMUM CONTACT AUGMENTATIONS FOR *SURFACE BEHAVIOR,AUGMENTED LAGRANGE   50
     CUT-BACK FACTOR AFTER DIVERGENCE                                 0.2500    
     CUT-BACK FACTOR FOR TOO SLOW CONVERGENCE                         0.5000    
     CUT-BACK FACTOR AFTER TOO MANY EQUILIBRIUM ITERATIONS            0.7500    
     CUT-BACK FACTOR AFTER TOO MANY SEVERE DISCONTINUITY ITERATIONS   0.2500    
     CUT-BACK FACTOR AFTER PROBLEMS IN ELEMENT ASSEMBLY               0.2500    
     INCREASE FACTOR AFTER TWO INCREMENTS THAT CONVERGE QUICKLY        1.500    
     MAX. TIME INCREMENT INCREASE FACTOR ALLOWED                       1.500    
     MAX. TIME INCREMENT INCREASE FACTOR ALLOWED (DYNAMICS)            1.250    
     MAX. TIME INCREMENT INCREASE FACTOR ALLOWED (DIFFUSION)           2.000    
     MINIMUM TIME INCREMENT RATIO FOR EXTRAPOLATION TO OCCUR          0.1000    
     MAX. RATIO OF TIME INCREMENT TO STABILITY LIMIT                   1.000    
     FRACTION OF STABILITY LIMIT FOR NEW TIME INCREMENT               0.9500    
     TIME INCREMENT INCREASE FACTOR BEFORE A TIME POINT                1.000    
     GLOBAL STABILIZATION CONTROL IS NOT USED

          PRINT OF INCREMENT NUMBER, TIME, ETC., EVERY    1  INCREMENTS

     THE MAXIMUM NUMBER OF INCREMENTS IN THIS STEP IS                     300

          LARGE DISPLACEMENT THEORY WILL BE USED

     LINEAR EXTRAPOLATION WILL BE USED

     CHARACTERISTIC ELEMENT LENGTH      3.85    

     DETAILS REGARDING ACTUAL SOLUTION WAVEFRONT REQUESTED

     DETAILED OUTPUT OF DIAGNOSTICS TO DATABASE REQUESTED

     PRINT OF INCREMENT NUMBER, TIME, ETC., TO THE MESSAGE FILE EVERY     1  INCREMENTS

     COLLECTING MODEL CONSTRAINT INFORMATION FOR OVERCONSTRAINT CHECKS

     COLLECTING STEP CONSTRAINT INFORMATION FOR OVERCONSTRAINT CHECKS


  INCREMENT     1 STARTS. ATTEMPT NUMBER  1

  NUMBER OF EQUATIONS =     81552     NUMBER OF RHS =    2
  NUMBER OF FLOATING PT. OPERATIONS =  6.96E+09

     CHECK POINT   START OF SOLVER    

     CHECK POINT  END OF SOLVER       

       ELAPSED USER TIME (SEC)      =   1.1000    
       ELAPSED SYSTEM TIME (SEC)    =   0.0000    
       ELAPSED TOTAL CPU TIME (SEC) =   1.1000    
       ELAPSED WALLCLOCK TIME (SEC) =          2

               CONVERGENCE CHECKS FOR EQUILIBRIUM ITERATION     1


 AVERAGE FORCE                      0.269       TIME AVG. FORCE       0.269    
 LARGEST RESIDUAL FORCE            -8.264E-03   AT NODE       1523   DOF  3
   INSTANCE: PART-1-1                                                                        
 LARGEST INCREMENT OF DISP.         0.101       AT NODE         45   DOF  2
   INSTANCE: PART-1-1                                                                        
 LARGEST CORRECTION TO DISP.        0.101       AT NODE         45   DOF  2
   INSTANCE: PART-1-1                                                                        
          FORCE     EQUILIBRIUM NOT ACHIEVED WITHIN TOLERANCE.

 AVERAGE MOMENT                     5.482E-03   TIME AVG. MOMENT      5.482E-03
 LARGEST RESIDUAL MOMENT            7.941E-04   AT NODE          2   DOF  4
   INSTANCE:                                                                                 
 LARGEST INCREMENT OF ROTATION     -1.346E-04   AT NODE         45   DOF  4
   INSTANCE: PART-1-1                                                                        
 LARGEST CORRECTION TO ROTATION    -1.346E-04   AT NODE         45   DOF  4
   INSTANCE: PART-1-1                                                                        
          MOMENT    EQUILIBRIUM NOT ACHIEVED WITHIN TOLERANCE.

 COMPATIBILITY ERRORS:
    TYPE                NUMBER EXCEEDING TOLERANCE  MAXIMUM ERROR        IN ELEMENT
 COUPLING DISPLACEMENT               0                7.210E-10                  2
   INSTANCE: {assembly node}                                                                 
 COUPLING ROTATION                   0               -1.634E-09                  9
   INSTANCE: {assembly node}                                                                 

  NUMBER OF EQUATIONS =     81552     NUMBER OF RHS =    2
  NUMBER OF FLOATING PT. OPERATIONS =  6.96E+09

     CHECK POINT   START OF SOLVER    

     CHECK POINT  END OF SOLVER       

       ELAPSED USER TIME (SEC)      =   1.2000    
       ELAPSED SYSTEM TIME (SEC)    =  0.10000    
       ELAPSED TOTAL CPU TIME (SEC) =   1.3000    
       ELAPSED WALLCLOCK TIME (SEC) =          2

               CONVERGENCE CHECKS FOR EQUILIBRIUM ITERATION     2


 AVERAGE FORCE                      0.269       TIME AVG. FORCE       0.269    
 LARGEST RESIDUAL FORCE             9.991E-08   AT NODE       7698   DOF  3
   INSTANCE: PART-1-1                                                                        
 LARGEST INCREMENT OF DISP.         0.101       AT NODE         45   DOF  2
   INSTANCE: PART-1-1                                                                        
 LARGEST CORRECTION TO DISP.       -5.681E-06   AT NODE         45   DOF  3
   INSTANCE: PART-1-1                                                                        
          THE FORCE     EQUILIBRIUM EQUATIONS HAVE CONVERGED

 AVERAGE MOMENT                     5.481E-03   TIME AVG. MOMENT      5.481E-03
 LARGEST RESIDUAL MOMENT            6.821E-08   AT NODE      13573   DOF  6
   INSTANCE: PART-1-1                                                                        
 LARGEST INCREMENT OF ROTATION     -1.346E-04   AT NODE         45   DOF  4
   INSTANCE: PART-1-1                                                                        
 LARGEST CORRECTION TO ROTATION     1.953E-07   AT NODE       5581   DOF  6
   INSTANCE: PART-1-1                                                                        
          THE MOMENT    EQUILIBRIUM EQUATIONS HAVE CONVERGED

 COMPATIBILITY ERRORS:
    TYPE                NUMBER EXCEEDING TOLERANCE  MAXIMUM ERROR        IN ELEMENT
 COUPLING DISPLACEMENT               0               -4.575E-17                  6
   INSTANCE: {assembly node}                                                                 
 COUPLING ROTATION                   0                8.662E-14                  9
   INSTANCE: {assembly node}                                                                 

 ITERATION SUMMARY FOR THE INCREMENT:   2 TOTAL ITERATIONS, OF WHICH
   0 ARE SEVERE DISCONTINUITY ITERATIONS AND  2 ARE EQUILIBRIUM ITERATIONS.


                                INCREMENT     1 SUMMARY


     CURRENT LOAD PROPORTIONALITY FACTOR         1.0000E-02
     TOTAL ARC LENGTH   1.000E-02, INCREMENT OF ARC LENGTH   1.000E-02


  INCREMENT     2 STARTS. ATTEMPT NUMBER  1

  NUMBER OF EQUATIONS =     81552     NUMBER OF RHS =    2
  NUMBER OF FLOATING PT. OPERATIONS =  6.96E+09

     CHECK POINT   START OF SOLVER    

     CHECK POINT  END OF SOLVER       

       ELAPSED USER TIME (SEC)      =   1.2000    
       ELAPSED SYSTEM TIME (SEC)    =   0.0000    
       ELAPSED TOTAL CPU TIME (SEC) =   1.2000    
       ELAPSED WALLCLOCK TIME (SEC) =          2

               CONVERGENCE CHECKS FOR EQUILIBRIUM ITERATION     1


 AVERAGE FORCE                      0.555       TIME AVG. FORCE       0.412    
 LARGEST RESIDUAL FORCE            -8.099E-03   AT NODE       1523   DOF  3
   INSTANCE: PART-1-1                                                                        
 LARGEST INCREMENT OF DISP.         0.101       AT NODE         45   DOF  2
   INSTANCE: PART-1-1                                                                        
 LARGEST CORRECTION TO DISP.        0.101       AT NODE         45   DOF  2
   INSTANCE: PART-1-1                                                                        
          FORCE     EQUILIBRIUM NOT ACHIEVED WITHIN TOLERANCE.

 AVERAGE MOMENT                     1.138E-02   TIME AVG. MOMENT      8.431E-03
 LARGEST RESIDUAL MOMENT           -1.736E-03   AT NODE      13573   DOF  5
   INSTANCE: PART-1-1                                                                        
 LARGEST INCREMENT OF ROTATION     -1.346E-04   AT NODE         45   DOF  4
   INSTANCE: PART-1-1                                                                        
 LARGEST CORRECTION TO ROTATION    -1.346E-04   AT NODE         45   DOF  4
   INSTANCE: PART-1-1                                                                        
          MOMENT    EQUILIBRIUM NOT ACHIEVED WITHIN TOLERANCE.

 COMPATIBILITY ERRORS:
    TYPE                NUMBER EXCEEDING TOLERANCE  MAXIMUM ERROR        IN ELEMENT
 COUPLING DISPLACEMENT               0                7.066E-10                  2
   INSTANCE: {assembly node}                                                                 
 COUPLING ROTATION                   0               -1.601E-09                  9
   INSTANCE: {assembly node}                                                                 

  NUMBER OF EQUATIONS =     81552     NUMBER OF RHS =    2
  NUMBER OF FLOATING PT. OPERATIONS =  6.96E+09

     CHECK POINT   START OF SOLVER    

     CHECK POINT  END OF SOLVER       

       ELAPSED USER TIME (SEC)      =   1.1000    
       ELAPSED SYSTEM TIME (SEC)    =   0.0000    
       ELAPSED TOTAL CPU TIME (SEC) =   1.1000    
       ELAPSED WALLCLOCK TIME (SEC) =          2

               CONVERGENCE CHECKS FOR EQUILIBRIUM ITERATION     2


 AVERAGE FORCE                      0.555       TIME AVG. FORCE       0.412    
 LARGEST RESIDUAL FORCE            -1.102E-07   AT NODE       1027   DOF  3
   INSTANCE: PART-1-1                                                                        
 LARGEST INCREMENT OF DISP.         0.101       AT NODE         45   DOF  2
   INSTANCE: PART-1-1                                                                        
 LARGEST CORRECTION TO DISP.       -5.567E-06   AT NODE         45   DOF  3
   INSTANCE: PART-1-1                                                                        
          THE FORCE     EQUILIBRIUM EQUATIONS HAVE CONVERGED

 AVERAGE MOMENT                     1.138E-02   TIME AVG. MOMENT      8.431E-03
 LARGEST RESIDUAL MOMENT            1.337E-07   AT NODE      13573   DOF  6
   INSTANCE: PART-1-1                                                                        
 LARGEST INCREMENT OF ROTATION     -1.346E-04   AT NODE         45   DOF  4
   INSTANCE: PART-1-1                                                                        
 LARGEST CORRECTION TO ROTATION     1.925E-07   AT NODE       5581   DOF  6
   INSTANCE: PART-1-1                                                                        
          THE MOMENT    EQUILIBRIUM EQUATIONS HAVE CONVERGED

 COMPATIBILITY ERRORS:
    TYPE                NUMBER EXCEEDING TOLERANCE  MAXIMUM ERROR        IN ELEMENT
 COUPLING DISPLACEMENT               0               -3.251E-17                  7
   INSTANCE: {assembly node}                                                                 
 COUPLING ROTATION                   0                8.484E-14                  9
   INSTANCE: {assembly node}                                                                 
          ARC LENGTH INCREMENT MAY NOW INCREASE TO    1.500E-02

 ITERATION SUMMARY FOR THE INCREMENT:   2 TOTAL ITERATIONS, OF WHICH
   0 ARE SEVERE DISCONTINUITY ITERATIONS AND  2 ARE EQUILIBRIUM ITERATIONS.


                                INCREMENT     2 SUMMARY


     CURRENT LOAD PROPORTIONALITY FACTOR         2.0000E-02
     TOTAL ARC LENGTH   2.000E-02, INCREMENT OF ARC LENGTH   1.000E-02


  INCREMENT     3 STARTS. ATTEMPT NUMBER  1

  NUMBER OF EQUATIONS =     81552     NUMBER OF RHS =    2
  NUMBER OF FLOATING PT. OPERATIONS =  6.96E+09

     CHECK POINT   START OF SOLVER    

     CHECK POINT  END OF SOLVER       

       ELAPSED USER TIME (SEC)      =   1.1000    
       ELAPSED SYSTEM TIME (SEC)    =   0.0000    
       ELAPSED TOTAL CPU TIME (SEC) =   1.1000    
       ELAPSED WALLCLOCK TIME (SEC) =          2

               CONVERGENCE CHECKS FOR EQUILIBRIUM ITERATION     1


 AVERAGE FORCE                      0.964       TIME AVG. FORCE       0.596    
 LARGEST RESIDUAL FORCE            -1.822E-02   AT NODE       1523   DOF  3
   INSTANCE: PART-1-1                                                                        
 LARGEST INCREMENT OF DISP.         0.152       AT NODE         45   DOF  2
   INSTANCE: PART-1-1                                                                        
 LARGEST CORRECTION TO DISP.        0.152       AT NODE         45   DOF  2
   INSTANCE: PART-1-1                                                                        
          FORCE     EQUILIBRIUM NOT ACHIEVED WITHIN TOLERANCE.

 AVERAGE MOMENT                     1.982E-02   TIME AVG. MOMENT      1.223E-02
 LARGEST RESIDUAL MOMENT           -5.118E-03   AT NODE      13573   DOF  5
   INSTANCE: PART-1-1                                                                        
 LARGEST INCREMENT OF ROTATION     -2.019E-04   AT NODE         45   DOF  4
   INSTANCE: PART-1-1                                                                        
 LARGEST CORRECTION TO ROTATION    -2.019E-04   AT NODE         45   DOF  4
   INSTANCE: PART-1-1                                                                        
          MOMENT    EQUILIBRIUM NOT ACHIEVED WITHIN TOLERANCE.

 COMPATIBILITY ERRORS:
    TYPE                NUMBER EXCEEDING TOLERANCE  MAXIMUM ERROR        IN ELEMENT
 COUPLING DISPLACEMENT               0                1.590E-09                  2
   INSTANCE: {assembly node}                                                                 
 COUPLING ROTATION                   0               -3.599E-09                  9
   INSTANCE: {assembly node}                                                                 

  NUMBER OF EQUATIONS =     81552     NUMBER OF RHS =    2
  NUMBER OF FLOATING PT. OPERATIONS =  6.96E+09

     CHECK POINT   START OF SOLVER    

     CHECK POINT  END OF SOLVER       

       ELAPSED USER TIME (SEC)      =   1.1000    
       ELAPSED SYSTEM TIME (SEC)    =  0.10000    
       ELAPSED TOTAL CPU TIME (SEC) =   1.2000    
       ELAPSED WALLCLOCK TIME (SEC) =          1

               CONVERGENCE CHECKS FOR EQUILIBRIUM ITERATION     2


 AVERAGE FORCE                      0.964       TIME AVG. FORCE       0.596    
 LARGEST RESIDUAL FORCE            -1.050E-07   AT NODE       7709   DOF  3
   INSTANCE: PART-1-1                                                                        
 LARGEST INCREMENT OF DISP.         0.152       AT NODE         45   DOF  2
   INSTANCE: PART-1-1                                                                        
 LARGEST CORRECTION TO DISP.       -1.253E-05   AT NODE         45   DOF  3
   INSTANCE: PART-1-1                                                                        
          THE FORCE     EQUILIBRIUM EQUATIONS HAVE CONVERGED

 AVERAGE MOMENT                     1.983E-02   TIME AVG. MOMENT      1.223E-02
 LARGEST RESIDUAL MOMENT            5.265E-07   AT NODE      13573   DOF  6
   INSTANCE: PART-1-1                                                                        
 LARGEST INCREMENT OF ROTATION     -2.019E-04   AT NODE         45   DOF  4
   INSTANCE: PART-1-1                                                                        
 LARGEST CORRECTION TO ROTATION     4.309E-07   AT NODE       5581   DOF  6
   INSTANCE: PART-1-1                                                                        
          THE MOMENT    EQUILIBRIUM EQUATIONS HAVE CONVERGED

 COMPATIBILITY ERRORS:
    TYPE                NUMBER EXCEEDING TOLERANCE  MAXIMUM ERROR        IN ELEMENT
 COUPLING DISPLACEMENT               0                4.071E-17                  8
   INSTANCE: {assembly node}                                                                 
 COUPLING ROTATION                   0                2.860E-13                  9
   INSTANCE: {assembly node}                                                                 
          ARC LENGTH INCREMENT MAY NOW INCREASE TO    2.250E-02

 ITERATION SUMMARY FOR THE INCREMENT:   2 TOTAL ITERATIONS, OF WHICH
   0 ARE SEVERE DISCONTINUITY ITERATIONS AND  2 ARE EQUILIBRIUM ITERATIONS.


                                INCREMENT     3 SUMMARY


     CURRENT LOAD PROPORTIONALITY FACTOR         3.5000E-02
     TOTAL ARC LENGTH   3.500E-02, INCREMENT OF ARC LENGTH   1.500E-02


  INCREMENT     4 STARTS. ATTEMPT NUMBER  1

  NUMBER OF EQUATIONS =     81552     NUMBER OF RHS =    2
  NUMBER OF FLOATING PT. OPERATIONS =  6.96E+09

     CHECK POINT   START OF SOLVER    

     CHECK POINT  END OF SOLVER       

       ELAPSED USER TIME (SEC)      =   1.2000    
       ELAPSED SYSTEM TIME (SEC)    =   0.0000    
       ELAPSED TOTAL CPU TIME (SEC) =   1.2000    
       ELAPSED WALLCLOCK TIME (SEC) =          2

               CONVERGENCE CHECKS FOR EQUILIBRIUM ITERATION     1


 AVERAGE FORCE                       1.58       TIME AVG. FORCE       0.842    
 LARGEST RESIDUAL FORCE            -4.100E-02   AT NODE       1523   DOF  3
   INSTANCE: PART-1-1                                                                        
 LARGEST INCREMENT OF DISP.         0.228       AT NODE         45   DOF  2
   INSTANCE: PART-1-1                                                                        
 LARGEST CORRECTION TO DISP.        0.228       AT NODE         45   DOF  2
   INSTANCE: PART-1-1                                                                        
          FORCE     EQUILIBRIUM NOT ACHIEVED WITHIN TOLERANCE.

 AVERAGE MOMENT                     3.246E-02   TIME AVG. MOMENT      1.729E-02
 LARGEST RESIDUAL MOMENT           -1.333E-02   AT NODE      13573   DOF  5
   INSTANCE: PART-1-1                                                                        
 LARGEST INCREMENT OF ROTATION     -3.028E-04   AT NODE         45   DOF  4
   INSTANCE: PART-1-1                                                                        
 LARGEST CORRECTION TO ROTATION    -3.028E-04   AT NODE         45   DOF  4
   INSTANCE: PART-1-1                                                                        
          MOMENT    EQUILIBRIUM NOT ACHIEVED WITHIN TOLERANCE.

 COMPATIBILITY ERRORS:
    TYPE                NUMBER EXCEEDING TOLERANCE  MAXIMUM ERROR        IN ELEMENT
 COUPLING DISPLACEMENT               0                3.577E-09                  2
   INSTANCE: {assembly node}                                                                 
 COUPLING ROTATION                   0               -8.091E-09                  9
   INSTANCE: {assembly node}                                                                 

  NUMBER OF EQUATIONS =     81552     NUMBER OF RHS =    2
  NUMBER OF FLOATING PT. OPERATIONS =  6.96E+09

     CHECK POINT   START OF SOLVER    

     CHECK POINT  END OF SOLVER       

       ELAPSED USER TIME (SEC)      =   1.0000    
       ELAPSED SYSTEM TIME (SEC)    =   0.0000    
       ELAPSED TOTAL CPU TIME (SEC) =   1.0000    
       ELAPSED WALLCLOCK TIME (SEC) =          2

               CONVERGENCE CHECKS FOR EQUILIBRIUM ITERATION     2


 AVERAGE FORCE                       1.58       TIME AVG. FORCE       0.842    
 LARGEST RESIDUAL FORCE            -1.017E-07   AT NODE        627   DOF  2
   INSTANCE: PART-1-1                                                                        
 LARGEST INCREMENT OF DISP.         0.228       AT NODE         45   DOF  2
   INSTANCE: PART-1-1                                                                        
 LARGEST CORRECTION TO DISP.       -2.818E-05   AT NODE         45   DOF  3
   INSTANCE: PART-1-1                                                                        
          THE FORCE     EQUILIBRIUM EQUATIONS HAVE CONVERGED

 AVERAGE MOMENT                     3.246E-02   TIME AVG. MOMENT      1.729E-02
 LARGEST RESIDUAL MOMENT            1.946E-06   AT NODE      13573   DOF  6
   INSTANCE: PART-1-1                                                                        
 LARGEST INCREMENT OF ROTATION     -3.028E-04   AT NODE         45   DOF  4
   INSTANCE: PART-1-1                                                                        
 LARGEST CORRECTION TO ROTATION     9.624E-07   AT NODE       5581   DOF  6
   INSTANCE: PART-1-1                                                                        
          THE MOMENT    EQUILIBRIUM EQUATIONS HAVE CONVERGED

 COMPATIBILITY ERRORS:
    TYPE                NUMBER EXCEEDING TOLERANCE  MAXIMUM ERROR        IN ELEMENT
 COUPLING DISPLACEMENT               0                4.124E-17                  9
   INSTANCE: {assembly node}                                                                 
 COUPLING ROTATION                   0                9.636E-13                  9
   INSTANCE: {assembly node}                                                                 
          ARC LENGTH INCREMENT MAY NOW INCREASE TO    3.375E-02

 ITERATION SUMMARY FOR THE INCREMENT:   2 TOTAL ITERATIONS, OF WHICH
   0 ARE SEVERE DISCONTINUITY ITERATIONS AND  2 ARE EQUILIBRIUM ITERATIONS.


                                INCREMENT     4 SUMMARY


     CURRENT LOAD PROPORTIONALITY FACTOR         5.7500E-02
     TOTAL ARC LENGTH   5.750E-02, INCREMENT OF ARC LENGTH   2.250E-02


  INCREMENT     5 STARTS. ATTEMPT NUMBER  1

  NUMBER OF EQUATIONS =     81552     NUMBER OF RHS =    2
  NUMBER OF FLOATING PT. OPERATIONS =  6.96E+09

     CHECK POINT   START OF SOLVER    

     CHECK POINT  END OF SOLVER       

       ELAPSED USER TIME (SEC)      =   1.3000    
       ELAPSED SYSTEM TIME (SEC)    =   0.0000    
       ELAPSED TOTAL CPU TIME (SEC) =   1.3000    
       ELAPSED WALLCLOCK TIME (SEC) =          3

               CONVERGENCE CHECKS FOR EQUILIBRIUM ITERATION     1


 AVERAGE FORCE                       2.50       TIME AVG. FORCE        1.17    
 LARGEST RESIDUAL FORCE            -9.225E-02   AT NODE       1523   DOF  3
   INSTANCE: PART-1-1                                                                        
 LARGEST INCREMENT OF DISP.         0.342       AT NODE         45   DOF  2
   INSTANCE: PART-1-1                                                                        
 LARGEST CORRECTION TO DISP.        0.342       AT NODE         45   DOF  2
   INSTANCE: PART-1-1                                                                        
          FORCE     EQUILIBRIUM NOT ACHIEVED WITHIN TOLERANCE.

 AVERAGE MOMENT                     5.137E-02   TIME AVG. MOMENT      2.410E-02
 LARGEST RESIDUAL MOMENT           -3.272E-02   AT NODE      13573   DOF  5
   INSTANCE: PART-1-1                                                                        
 LARGEST INCREMENT OF ROTATION     -4.542E-04   AT NODE         45   DOF  4
   INSTANCE: PART-1-1                                                                        
 LARGEST CORRECTION TO ROTATION    -4.542E-04   AT NODE         45   DOF  4
   INSTANCE: PART-1-1                                                                        
          MOMENT    EQUILIBRIUM NOT ACHIEVED WITHIN TOLERANCE.

 COMPATIBILITY ERRORS:
    TYPE                NUMBER EXCEEDING TOLERANCE  MAXIMUM ERROR        IN ELEMENT
 COUPLING DISPLACEMENT               0                8.049E-09                  2
   INSTANCE: {assembly node}                                                                 
 COUPLING ROTATION                   0               -1.818E-08                  9
   INSTANCE: {assembly node}                                                                 

  NUMBER OF EQUATIONS =     81552     NUMBER OF RHS =    2
  NUMBER OF FLOATING PT. OPERATIONS =  6.96E+09

     CHECK POINT   START OF SOLVER    

     CHECK POINT  END OF SOLVER       

       ELAPSED USER TIME (SEC)      =   1.2000    
       ELAPSED SYSTEM TIME (SEC)    =   0.0000    
       ELAPSED TOTAL CPU TIME (SEC) =   1.2000    
       ELAPSED WALLCLOCK TIME (SEC) =          2

               CONVERGENCE CHECKS FOR EQUILIBRIUM ITERATION     2


 AVERAGE FORCE                       2.50       TIME AVG. FORCE        1.17    
 LARGEST RESIDUAL FORCE            -5.188E-07   AT NODE        627   DOF  2
   INSTANCE: PART-1-1                                                                        
 LARGEST INCREMENT OF DISP.         0.342       AT NODE         45   DOF  2
   INSTANCE: PART-1-1                                                                        
 LARGEST CORRECTION TO DISP.       -6.341E-05   AT NODE         45   DOF  3
   INSTANCE: PART-1-1                                                                        
          THE FORCE     EQUILIBRIUM EQUATIONS HAVE CONVERGED

 AVERAGE MOMENT                     5.137E-02   TIME AVG. MOMENT      2.410E-02
 LARGEST RESIDUAL MOMENT            6.948E-06   AT NODE      13573   DOF  6
   INSTANCE: PART-1-1                                                                        
 LARGEST INCREMENT OF ROTATION     -4.542E-04   AT NODE         45   DOF  4
   INSTANCE: PART-1-1                                                                        
 LARGEST CORRECTION TO ROTATION     2.143E-06   AT NODE       5581   DOF  6
   INSTANCE: PART-1-1                                                                        
          THE MOMENT    EQUILIBRIUM EQUATIONS HAVE CONVERGED

 COMPATIBILITY ERRORS:
    TYPE                NUMBER EXCEEDING TOLERANCE  MAXIMUM ERROR        IN ELEMENT
 COUPLING DISPLACEMENT               0               -1.321E-16                  4
   INSTANCE: {assembly node}                                                                 
 COUPLING ROTATION                   0                3.244E-12                  9
   INSTANCE: {assembly node}                                                                 
          ARC LENGTH INCREMENT MAY NOW INCREASE TO    5.000E-02

 ITERATION SUMMARY FOR THE INCREMENT:   2 TOTAL ITERATIONS, OF WHICH
   0 ARE SEVERE DISCONTINUITY ITERATIONS AND  2 ARE EQUILIBRIUM ITERATIONS.


                                INCREMENT     5 SUMMARY


     CURRENT LOAD PROPORTIONALITY FACTOR         9.1250E-02
     TOTAL ARC LENGTH   9.125E-02, INCREMENT OF ARC LENGTH   3.375E-02


  INCREMENT     6 STARTS. ATTEMPT NUMBER  1

  NUMBER OF EQUATIONS =     81552     NUMBER OF RHS =    2
  NUMBER OF FLOATING PT. OPERATIONS =  6.96E+09

     CHECK POINT   START OF SOLVER    

     CHECK POINT  END OF SOLVER       

       ELAPSED USER TIME (SEC)      =   1.2000    
       ELAPSED SYSTEM TIME (SEC)    =   0.0000    
       ELAPSED TOTAL CPU TIME (SEC) =   1.2000    
       ELAPSED WALLCLOCK TIME (SEC) =          1

               CONVERGENCE CHECKS FOR EQUILIBRIUM ITERATION     1


 AVERAGE FORCE                       3.86       TIME AVG. FORCE        1.62    
 LARGEST RESIDUAL FORCE            -0.202       AT NODE       1523   DOF  3
   INSTANCE: PART-1-1                                                                        
 LARGEST INCREMENT OF DISP.         0.506       AT NODE         45   DOF  2
   INSTANCE: PART-1-1                                                                        
 LARGEST CORRECTION TO DISP.        0.506       AT NODE         45   DOF  2
   INSTANCE: PART-1-1                                                                        
          FORCE     EQUILIBRIUM NOT ACHIEVED WITHIN TOLERANCE.

 AVERAGE MOMENT                     7.937E-02   TIME AVG. MOMENT      3.332E-02
 LARGEST RESIDUAL MOMENT           -7.670E-02   AT NODE      13573   DOF  5
   INSTANCE: PART-1-1                                                                        
 LARGEST INCREMENT OF ROTATION     -6.729E-04   AT NODE         45   DOF  4
   INSTANCE: PART-1-1                                                                        
 LARGEST CORRECTION TO ROTATION    -6.729E-04   AT NODE         45   DOF  4
   INSTANCE: PART-1-1                                                                        
          MOMENT    EQUILIBRIUM NOT ACHIEVED WITHIN TOLERANCE.

 COMPATIBILITY ERRORS:
    TYPE                NUMBER EXCEEDING TOLERANCE  MAXIMUM ERROR        IN ELEMENT
 COUPLING DISPLACEMENT               0                1.767E-08                  2
   INSTANCE: {assembly node}                                                                 
 COUPLING ROTATION                   0               -3.982E-08                  9
   INSTANCE: {assembly node}                                                                 

  NUMBER OF EQUATIONS =     81552     NUMBER OF RHS =    2
  NUMBER OF FLOATING PT. OPERATIONS =  6.96E+09

     CHECK POINT   START OF SOLVER    

     CHECK POINT  END OF SOLVER       

       ELAPSED USER TIME (SEC)      =   1.1000    
       ELAPSED SYSTEM TIME (SEC)    =  0.10000    
       ELAPSED TOTAL CPU TIME (SEC) =   1.2000    
       ELAPSED WALLCLOCK TIME (SEC) =          2

               CONVERGENCE CHECKS FOR EQUILIBRIUM ITERATION     2


 AVERAGE FORCE                       3.86       TIME AVG. FORCE        1.62    
 LARGEST RESIDUAL FORCE            -2.551E-06   AT NODE        628   DOF  2
   INSTANCE: PART-1-1                                                                        
 LARGEST INCREMENT OF DISP.         0.506       AT NODE         45   DOF  2
   INSTANCE: PART-1-1                                                                        
 LARGEST CORRECTION TO DISP.       -1.392E-04   AT NODE         45   DOF  3
   INSTANCE: PART-1-1                                                                        
          THE FORCE     EQUILIBRIUM EQUATIONS HAVE CONVERGED

 AVERAGE MOMENT                     7.940E-02   TIME AVG. MOMENT      3.332E-02
 LARGEST RESIDUAL MOMENT            2.360E-05   AT NODE      13573   DOF  6
   INSTANCE: PART-1-1                                                                        
 LARGEST INCREMENT OF ROTATION     -6.729E-04   AT NODE         45   DOF  4
   INSTANCE: PART-1-1                                                                        
 LARGEST CORRECTION TO ROTATION     4.638E-06   AT NODE       5581   DOF  6
   INSTANCE: PART-1-1                                                                        
          THE MOMENT    EQUILIBRIUM EQUATIONS HAVE CONVERGED

 COMPATIBILITY ERRORS:
    TYPE                NUMBER EXCEEDING TOLERANCE  MAXIMUM ERROR        IN ELEMENT
 COUPLING DISPLACEMENT               0               -4.948E-16                  8
   INSTANCE: {assembly node}                                                                 
 COUPLING ROTATION                   0                1.051E-11                  9
   INSTANCE: {assembly node}                                                                 

 ITERATION SUMMARY FOR THE INCREMENT:   2 TOTAL ITERATIONS, OF WHICH
   0 ARE SEVERE DISCONTINUITY ITERATIONS AND  2 ARE EQUILIBRIUM ITERATIONS.


                                INCREMENT     6 SUMMARY


     CURRENT LOAD PROPORTIONALITY FACTOR         0.1412    
     TOTAL ARC LENGTH   0.141    , INCREMENT OF ARC LENGTH   5.000E-02


  INCREMENT     7 STARTS. ATTEMPT NUMBER  1

  NUMBER OF EQUATIONS =     81552     NUMBER OF RHS =    2
  NUMBER OF FLOATING PT. OPERATIONS =  6.96E+09

     CHECK POINT   START OF SOLVER    

     CHECK POINT  END OF SOLVER       

       ELAPSED USER TIME (SEC)      =   1.2000    
       ELAPSED SYSTEM TIME (SEC)    =   0.0000    
       ELAPSED TOTAL CPU TIME (SEC) =   1.2000    
       ELAPSED WALLCLOCK TIME (SEC) =          1

               CONVERGENCE CHECKS FOR EQUILIBRIUM ITERATION     1


 AVERAGE FORCE                       5.23       TIME AVG. FORCE        2.14    
 LARGEST RESIDUAL FORCE            -0.202       AT NODE       1523   DOF  3
   INSTANCE: PART-1-1                                                                        
 LARGEST INCREMENT OF DISP.         0.506       AT NODE         45   DOF  2
   INSTANCE: PART-1-1                                                                        
 LARGEST CORRECTION TO DISP.        0.506       AT NODE         45   DOF  2
   INSTANCE: PART-1-1                                                                        
          FORCE     EQUILIBRIUM NOT ACHIEVED WITHIN TOLERANCE.

 AVERAGE MOMENT                     0.108       TIME AVG. MOMENT      4.394E-02
 LARGEST RESIDUAL MOMENT           -0.117       AT NODE      13573   DOF  5
   INSTANCE: PART-1-1                                                                        
 LARGEST INCREMENT OF ROTATION     -6.729E-04   AT NODE         45   DOF  4
   INSTANCE: PART-1-1                                                                        
 LARGEST CORRECTION TO ROTATION    -6.729E-04   AT NODE         45   DOF  4
   INSTANCE: PART-1-1                                                                        
          MOMENT    EQUILIBRIUM NOT ACHIEVED WITHIN TOLERANCE.

 COMPATIBILITY ERRORS:
    TYPE                NUMBER EXCEEDING TOLERANCE  MAXIMUM ERROR        IN ELEMENT
 COUPLING DISPLACEMENT               0                1.767E-08                  2
   INSTANCE: {assembly node}                                                                 
 COUPLING ROTATION                   0               -3.970E-08                  9
   INSTANCE: {assembly node}                                                                 

  NUMBER OF EQUATIONS =     81552     NUMBER OF RHS =    2
  NUMBER OF FLOATING PT. OPERATIONS =  6.96E+09

     CHECK POINT   START OF SOLVER    

     CHECK POINT  END OF SOLVER       

       ELAPSED USER TIME (SEC)      =   1.2000    
       ELAPSED SYSTEM TIME (SEC)    =  0.10000    
       ELAPSED TOTAL CPU TIME (SEC) =   1.3000    
       ELAPSED WALLCLOCK TIME (SEC) =          1

               CONVERGENCE CHECKS FOR EQUILIBRIUM ITERATION     2


 AVERAGE FORCE                       5.23       TIME AVG. FORCE        2.14    
 LARGEST RESIDUAL FORCE            -2.629E-06   AT NODE        628   DOF  2
   INSTANCE: PART-1-1                                                                        
 LARGEST INCREMENT OF DISP.         0.506       AT NODE         45   DOF  2
   INSTANCE: PART-1-1                                                                        
 LARGEST CORRECTION TO DISP.       -1.392E-04   AT NODE         45   DOF  3
   INSTANCE: PART-1-1                                                                        
          THE FORCE     EQUILIBRIUM EQUATIONS HAVE CONVERGED

 AVERAGE MOMENT                     0.108       TIME AVG. MOMENT      4.395E-02
 LARGEST RESIDUAL MOMENT            3.195E-05   AT NODE      13573   DOF  6
   INSTANCE: PART-1-1                                                                        
 LARGEST INCREMENT OF ROTATION     -6.729E-04   AT NODE         45   DOF  4
   INSTANCE: PART-1-1                                                                        
 LARGEST CORRECTION TO ROTATION     4.694E-06   AT NODE       4356   DOF  6
   INSTANCE: PART-1-1                                                                        
          THE MOMENT    EQUILIBRIUM EQUATIONS HAVE CONVERGED

 COMPATIBILITY ERRORS:
    TYPE                NUMBER EXCEEDING TOLERANCE  MAXIMUM ERROR        IN ELEMENT
 COUPLING DISPLACEMENT               0               -4.456E-16                  8
   INSTANCE: {assembly node}                                                                 
 COUPLING ROTATION                   0                1.046E-11                  9
   INSTANCE: {assembly node}                                                                 

 ITERATION SUMMARY FOR THE INCREMENT:   2 TOTAL ITERATIONS, OF WHICH
   0 ARE SEVERE DISCONTINUITY ITERATIONS AND  2 ARE EQUILIBRIUM ITERATIONS.


                                INCREMENT     7 SUMMARY


     CURRENT LOAD PROPORTIONALITY FACTOR         0.1912    
     TOTAL ARC LENGTH   0.191    , INCREMENT OF ARC LENGTH   5.000E-02


  INCREMENT     8 STARTS. ATTEMPT NUMBER  1

  NUMBER OF EQUATIONS =     81552     NUMBER OF RHS =    2
  NUMBER OF FLOATING PT. OPERATIONS =  6.96E+09

     CHECK POINT   START OF SOLVER    

     CHECK POINT  END OF SOLVER       

       ELAPSED USER TIME (SEC)      =   1.1000    
       ELAPSED SYSTEM TIME (SEC)    =   0.0000    
       ELAPSED TOTAL CPU TIME (SEC) =   1.1000    
       ELAPSED WALLCLOCK TIME (SEC) =          1

               CONVERGENCE CHECKS FOR EQUILIBRIUM ITERATION     1


 AVERAGE FORCE                       6.60       TIME AVG. FORCE        2.69    
 LARGEST RESIDUAL FORCE            -0.202       AT NODE       1523   DOF  3
   INSTANCE: PART-1-1                                                                        
 LARGEST INCREMENT OF DISP.         0.506       AT NODE         45   DOF  2
   INSTANCE: PART-1-1                                                                        
 LARGEST CORRECTION TO DISP.        0.506       AT NODE         45   DOF  2
   INSTANCE: PART-1-1                                                                        
          FORCE     EQUILIBRIUM NOT ACHIEVED WITHIN TOLERANCE.

 AVERAGE MOMENT                     0.136       TIME AVG. MOMENT      5.549E-02
 LARGEST RESIDUAL MOMENT           -0.157       AT NODE      13573   DOF  5
   INSTANCE: PART-1-1                                                                        
 LARGEST INCREMENT OF ROTATION     -6.729E-04   AT NODE         45   DOF  4
   INSTANCE: PART-1-1                                                                        
 LARGEST CORRECTION TO ROTATION    -6.729E-04   AT NODE         45   DOF  4
   INSTANCE: PART-1-1                                                                        
          MOMENT    EQUILIBRIUM NOT ACHIEVED WITHIN TOLERANCE.

 COMPATIBILITY ERRORS:
    TYPE                NUMBER EXCEEDING TOLERANCE  MAXIMUM ERROR        IN ELEMENT
 COUPLING DISPLACEMENT               0                1.767E-08                  2
   INSTANCE: {assembly node}                                                                 
 COUPLING ROTATION                   0               -3.959E-08                  9
   INSTANCE: {assembly node}                                                                 

  NUMBER OF EQUATIONS =     81552     NUMBER OF RHS =    2
  NUMBER OF FLOATING PT. OPERATIONS =  6.96E+09

     CHECK POINT   START OF SOLVER    

     CHECK POINT  END OF SOLVER       

       ELAPSED USER TIME (SEC)      =   1.1000    
       ELAPSED SYSTEM TIME (SEC)    =  0.10000    
       ELAPSED TOTAL CPU TIME (SEC) =   1.2000    
       ELAPSED WALLCLOCK TIME (SEC) =          2

               CONVERGENCE CHECKS FOR EQUILIBRIUM ITERATION     2


 AVERAGE FORCE                       6.60       TIME AVG. FORCE        2.69    
 LARGEST RESIDUAL FORCE            -2.717E-06   AT NODE        628   DOF  2
   INSTANCE: PART-1-1                                                                        
 LARGEST INCREMENT OF DISP.         0.506       AT NODE         45   DOF  2
   INSTANCE: PART-1-1                                                                        
 LARGEST CORRECTION TO DISP.       -1.391E-04   AT NODE         45   DOF  3
   INSTANCE: PART-1-1                                                                        
          THE FORCE     EQUILIBRIUM EQUATIONS HAVE CONVERGED

 AVERAGE MOMENT                     0.136       TIME AVG. MOMENT      5.550E-02
 LARGEST RESIDUAL MOMENT            4.030E-05   AT NODE      13573   DOF  6
   INSTANCE: PART-1-1                                                                        
 LARGEST INCREMENT OF ROTATION     -6.728E-04   AT NODE         45   DOF  4
   INSTANCE: PART-1-1                                                                        
 LARGEST CORRECTION TO ROTATION     4.795E-06   AT NODE       4356   DOF  6
   INSTANCE: PART-1-1                                                                        
          THE MOMENT    EQUILIBRIUM EQUATIONS HAVE CONVERGED

 COMPATIBILITY ERRORS:
    TYPE                NUMBER EXCEEDING TOLERANCE  MAXIMUM ERROR        IN ELEMENT
 COUPLING DISPLACEMENT               0               -4.381E-16              13521
   INSTANCE: PART-1-1                                                                        
 COUPLING ROTATION                   0                1.041E-11                  9
   INSTANCE: {assembly node}                                                                 

 ITERATION SUMMARY FOR THE INCREMENT:   2 TOTAL ITERATIONS, OF WHICH
   0 ARE SEVERE DISCONTINUITY ITERATIONS AND  2 ARE EQUILIBRIUM ITERATIONS.


                                INCREMENT     8 SUMMARY


     CURRENT LOAD PROPORTIONALITY FACTOR         0.2412    
     TOTAL ARC LENGTH   0.241    , INCREMENT OF ARC LENGTH   5.000E-02


  INCREMENT     9 STARTS. ATTEMPT NUMBER  1

  NUMBER OF EQUATIONS =     81552     NUMBER OF RHS =    2
  NUMBER OF FLOATING PT. OPERATIONS =  6.96E+09

     CHECK POINT   START OF SOLVER    

     CHECK POINT  END OF SOLVER       

       ELAPSED USER TIME (SEC)      =   1.2000    
       ELAPSED SYSTEM TIME (SEC)    =   0.0000    
       ELAPSED TOTAL CPU TIME (SEC) =   1.2000    
       ELAPSED WALLCLOCK TIME (SEC) =          3

               CONVERGENCE CHECKS FOR EQUILIBRIUM ITERATION     1


 AVERAGE FORCE                       7.97       TIME AVG. FORCE        3.28    
 LARGEST RESIDUAL FORCE            -0.203       AT NODE       1523   DOF  3
   INSTANCE: PART-1-1                                                                        
 LARGEST INCREMENT OF DISP.         0.506       AT NODE         45   DOF  2
   INSTANCE: PART-1-1                                                                        
 LARGEST CORRECTION TO DISP.        0.506       AT NODE         45   DOF  2
   INSTANCE: PART-1-1                                                                        
          FORCE     EQUILIBRIUM NOT ACHIEVED WITHIN TOLERANCE.

 AVERAGE MOMENT                     0.165       TIME AVG. MOMENT      6.767E-02
 LARGEST RESIDUAL MOMENT           -0.198       AT NODE      13573   DOF  5
   INSTANCE: PART-1-1                                                                        
 LARGEST INCREMENT OF ROTATION     -6.728E-04   AT NODE         45   DOF  4
   INSTANCE: PART-1-1                                                                        
 LARGEST CORRECTION TO ROTATION    -6.728E-04   AT NODE         45   DOF  4
   INSTANCE: PART-1-1                                                                        
          MOMENT    EQUILIBRIUM NOT ACHIEVED WITHIN TOLERANCE.

 COMPATIBILITY ERRORS:
    TYPE                NUMBER EXCEEDING TOLERANCE  MAXIMUM ERROR        IN ELEMENT
 COUPLING DISPLACEMENT               0                1.767E-08                  2
   INSTANCE: {assembly node}                                                                 
 COUPLING ROTATION                   0               -3.948E-08                  9
   INSTANCE: {assembly node}                                                                 

  NUMBER OF EQUATIONS =     81552     NUMBER OF RHS =    2
  NUMBER OF FLOATING PT. OPERATIONS =  6.96E+09

     CHECK POINT   START OF SOLVER    

     CHECK POINT  END OF SOLVER       

       ELAPSED USER TIME (SEC)      =   1.2000    
       ELAPSED SYSTEM TIME (SEC)    =   0.0000    
       ELAPSED TOTAL CPU TIME (SEC) =   1.2000    
       ELAPSED WALLCLOCK TIME (SEC) =          3

               CONVERGENCE CHECKS FOR EQUILIBRIUM ITERATION     2


 AVERAGE FORCE                       7.97       TIME AVG. FORCE        3.28    
 LARGEST RESIDUAL FORCE            -2.816E-06   AT NODE        629   DOF  2
   INSTANCE: PART-1-1                                                                        
 LARGEST INCREMENT OF DISP.         0.506       AT NODE         45   DOF  2
   INSTANCE: PART-1-1                                                                        
 LARGEST CORRECTION TO DISP.       -1.391E-04   AT NODE         45   DOF  3
   INSTANCE: PART-1-1                                                                        
          THE FORCE     EQUILIBRIUM EQUATIONS HAVE CONVERGED

 AVERAGE MOMENT                     0.165       TIME AVG. MOMENT      6.768E-02
 LARGEST RESIDUAL MOMENT            4.864E-05   AT NODE      13573   DOF  6
   INSTANCE: PART-1-1                                                                        
 LARGEST INCREMENT OF ROTATION     -6.728E-04   AT NODE         45   DOF  4
   INSTANCE: PART-1-1                                                                        
 LARGEST CORRECTION TO ROTATION     4.903E-06   AT NODE       4356   DOF  6
   INSTANCE: PART-1-1                                                                        
          THE MOMENT    EQUILIBRIUM EQUATIONS HAVE CONVERGED

 COMPATIBILITY ERRORS:
    TYPE                NUMBER EXCEEDING TOLERANCE  MAXIMUM ERROR        IN ELEMENT
 COUPLING DISPLACEMENT               0               -4.510E-16              13521
   INSTANCE: PART-1-1                                                                        
 COUPLING ROTATION                   0                1.035E-11                  9
   INSTANCE: {assembly node}                                                                 

 ITERATION SUMMARY FOR THE INCREMENT:   2 TOTAL ITERATIONS, OF WHICH
   0 ARE SEVERE DISCONTINUITY ITERATIONS AND  2 ARE EQUILIBRIUM ITERATIONS.


                                INCREMENT     9 SUMMARY


     CURRENT LOAD PROPORTIONALITY FACTOR         0.2912    
     TOTAL ARC LENGTH   0.291    , INCREMENT OF ARC LENGTH   5.000E-02


  INCREMENT    10 STARTS. ATTEMPT NUMBER  1

  NUMBER OF EQUATIONS =     81552     NUMBER OF RHS =    2
  NUMBER OF FLOATING PT. OPERATIONS =  6.96E+09

     CHECK POINT   START OF SOLVER    

     CHECK POINT  END OF SOLVER       

       ELAPSED USER TIME (SEC)      =   1.1000    
       ELAPSED SYSTEM TIME (SEC)    =   0.0000    
       ELAPSED TOTAL CPU TIME (SEC) =   1.1000    
       ELAPSED WALLCLOCK TIME (SEC) =          2

               CONVERGENCE CHECKS FOR EQUILIBRIUM ITERATION     1


 AVERAGE FORCE                       9.35       TIME AVG. FORCE        3.89    
 LARGEST RESIDUAL FORCE            -0.203       AT NODE       1523   DOF  3
   INSTANCE: PART-1-1                                                                        
 LARGEST INCREMENT OF DISP.         0.506       AT NODE         45   DOF  2
   INSTANCE: PART-1-1                                                                        
 LARGEST CORRECTION TO DISP.        0.506       AT NODE         45   DOF  2
   INSTANCE: PART-1-1                                                                        
          FORCE     EQUILIBRIUM NOT ACHIEVED WITHIN TOLERANCE.

 AVERAGE MOMENT                     0.194       TIME AVG. MOMENT      8.033E-02
 LARGEST RESIDUAL MOMENT           -0.238       AT NODE      13573   DOF  5
   INSTANCE: PART-1-1                                                                        
 LARGEST INCREMENT OF ROTATION     -6.728E-04   AT NODE         45   DOF  4
   INSTANCE: PART-1-1                                                                        
 LARGEST CORRECTION TO ROTATION    -6.728E-04   AT NODE         45   DOF  4
   INSTANCE: PART-1-1                                                                        
          MOMENT    EQUILIBRIUM NOT ACHIEVED WITHIN TOLERANCE.

 COMPATIBILITY ERRORS:
    TYPE                NUMBER EXCEEDING TOLERANCE  MAXIMUM ERROR        IN ELEMENT
 COUPLING DISPLACEMENT               0                1.767E-08                  2
   INSTANCE: {assembly node}                                                                 
 COUPLING ROTATION                   0               -3.937E-08                  9
   INSTANCE: {assembly node}                                                                 

  NUMBER OF EQUATIONS =     81552     NUMBER OF RHS =    2
  NUMBER OF FLOATING PT. OPERATIONS =  6.96E+09

     CHECK POINT   START OF SOLVER    

     CHECK POINT  END OF SOLVER       

       ELAPSED USER TIME (SEC)      =   1.1000    
       ELAPSED SYSTEM TIME (SEC)    =   0.0000    
       ELAPSED TOTAL CPU TIME (SEC) =   1.1000    
       ELAPSED WALLCLOCK TIME (SEC) =          2

               CONVERGENCE CHECKS FOR EQUILIBRIUM ITERATION     2


 AVERAGE FORCE                       9.35       TIME AVG. FORCE        3.89    
 LARGEST RESIDUAL FORCE            -2.930E-06   AT NODE        629   DOF  2
   INSTANCE: PART-1-1                                                                        
 LARGEST INCREMENT OF DISP.         0.506       AT NODE         45   DOF  2
   INSTANCE: PART-1-1                                                                        
 LARGEST CORRECTION TO DISP.       -1.391E-04   AT NODE         45   DOF  3
   INSTANCE: PART-1-1                                                                        
          THE FORCE     EQUILIBRIUM EQUATIONS HAVE CONVERGED

 AVERAGE MOMENT                     0.194       TIME AVG. MOMENT      8.034E-02
 LARGEST RESIDUAL MOMENT            5.698E-05   AT NODE      13573   DOF  6
   INSTANCE: PART-1-1                                                                        
 LARGEST INCREMENT OF ROTATION     -6.728E-04   AT NODE         45   DOF  4
   INSTANCE: PART-1-1                                                                        
 LARGEST CORRECTION TO ROTATION     5.019E-06   AT NODE       4356   DOF  6
   INSTANCE: PART-1-1                                                                        
          THE MOMENT    EQUILIBRIUM EQUATIONS HAVE CONVERGED

 COMPATIBILITY ERRORS:
    TYPE                NUMBER EXCEEDING TOLERANCE  MAXIMUM ERROR        IN ELEMENT
 COUPLING DISPLACEMENT               0               -5.331E-16              13521
   INSTANCE: PART-1-1                                                                        
 COUPLING ROTATION                   0                1.030E-11                  9
   INSTANCE: {assembly node}                                                                 

 ITERATION SUMMARY FOR THE INCREMENT:   2 TOTAL ITERATIONS, OF WHICH
   0 ARE SEVERE DISCONTINUITY ITERATIONS AND  2 ARE EQUILIBRIUM ITERATIONS.


                                INCREMENT    10 SUMMARY


     CURRENT LOAD PROPORTIONALITY FACTOR         0.3412    
     TOTAL ARC LENGTH   0.341    , INCREMENT OF ARC LENGTH   5.000E-02


  INCREMENT    11 STARTS. ATTEMPT NUMBER  1

  NUMBER OF EQUATIONS =     81552     NUMBER OF RHS =    2
  NUMBER OF FLOATING PT. OPERATIONS =  6.96E+09

     CHECK POINT   START OF SOLVER    

     CHECK POINT  END OF SOLVER       

       ELAPSED USER TIME (SEC)      =   1.2000    
       ELAPSED SYSTEM TIME (SEC)    =   0.0000    
       ELAPSED TOTAL CPU TIME (SEC) =   1.2000    
       ELAPSED WALLCLOCK TIME (SEC) =          2

               CONVERGENCE CHECKS FOR EQUILIBRIUM ITERATION     1


 AVERAGE FORCE                       10.7       TIME AVG. FORCE        4.51    
 LARGEST RESIDUAL FORCE            -0.203       AT NODE       1523   DOF  3
   INSTANCE: PART-1-1                                                                        
 LARGEST INCREMENT OF DISP.         0.506       AT NODE         45   DOF  2
   INSTANCE: PART-1-1                                                                        
 LARGEST CORRECTION TO DISP.        0.506       AT NODE         45   DOF  2
   INSTANCE: PART-1-1                                                                        
          FORCE     EQUILIBRIUM NOT ACHIEVED WITHIN TOLERANCE.

 AVERAGE MOMENT                     0.224       TIME AVG. MOMENT      9.336E-02
 LARGEST RESIDUAL MOMENT           -0.278       AT NODE      13573   DOF  5
   INSTANCE: PART-1-1                                                                        
 LARGEST INCREMENT OF ROTATION     -6.728E-04   AT NODE         45   DOF  4
   INSTANCE: PART-1-1                                                                        
 LARGEST CORRECTION TO ROTATION    -6.728E-04   AT NODE         45   DOF  4
   INSTANCE: PART-1-1                                                                        
          MOMENT    EQUILIBRIUM NOT ACHIEVED WITHIN TOLERANCE.

 COMPATIBILITY ERRORS:
    TYPE                NUMBER EXCEEDING TOLERANCE  MAXIMUM ERROR        IN ELEMENT
 COUPLING DISPLACEMENT               0                1.767E-08                  2
   INSTANCE: {assembly node}                                                                 
 COUPLING ROTATION                   0               -3.926E-08                  9
   INSTANCE: {assembly node}                                                                 

  NUMBER OF EQUATIONS =     81552     NUMBER OF RHS =    2
  NUMBER OF FLOATING PT. OPERATIONS =  6.96E+09

     CHECK POINT   START OF SOLVER    

     CHECK POINT  END OF SOLVER       

       ELAPSED USER TIME (SEC)      =   1.2000    
       ELAPSED SYSTEM TIME (SEC)    =  0.10000    
       ELAPSED TOTAL CPU TIME (SEC) =   1.3000    
       ELAPSED WALLCLOCK TIME (SEC) =          2

               CONVERGENCE CHECKS FOR EQUILIBRIUM ITERATION     2


 AVERAGE FORCE                       10.7       TIME AVG. FORCE        4.51    
 LARGEST RESIDUAL FORCE            -3.055E-06   AT NODE        629   DOF  2
   INSTANCE: PART-1-1                                                                        
 LARGEST INCREMENT OF DISP.         0.506       AT NODE         45   DOF  2
   INSTANCE: PART-1-1                                                                        
 LARGEST CORRECTION TO DISP.       -1.391E-04   AT NODE         45   DOF  3
   INSTANCE: PART-1-1                                                                        
          THE FORCE     EQUILIBRIUM EQUATIONS HAVE CONVERGED

 AVERAGE MOMENT                     0.224       TIME AVG. MOMENT      9.337E-02
 LARGEST RESIDUAL MOMENT            6.532E-05   AT NODE      13573   DOF  6
   INSTANCE: PART-1-1                                                                        
 LARGEST INCREMENT OF ROTATION     -6.728E-04   AT NODE         45   DOF  4
   INSTANCE: PART-1-1                                                                        
 LARGEST CORRECTION TO ROTATION     5.149E-06   AT NODE       4368   DOF  6
   INSTANCE: PART-1-1                                                                        
          THE MOMENT    EQUILIBRIUM EQUATIONS HAVE CONVERGED

 COMPATIBILITY ERRORS:
    TYPE                NUMBER EXCEEDING TOLERANCE  MAXIMUM ERROR        IN ELEMENT
 COUPLING DISPLACEMENT               0               -4.647E-16              13521
   INSTANCE: PART-1-1                                                                        
 COUPLING ROTATION                   0                1.025E-11                  9
   INSTANCE: {assembly node}                                                                 

 ITERATION SUMMARY FOR THE INCREMENT:   2 TOTAL ITERATIONS, OF WHICH
   0 ARE SEVERE DISCONTINUITY ITERATIONS AND  2 ARE EQUILIBRIUM ITERATIONS.


                                INCREMENT    11 SUMMARY


     CURRENT LOAD PROPORTIONALITY FACTOR         0.3912    
     TOTAL ARC LENGTH   0.391    , INCREMENT OF ARC LENGTH   5.000E-02


  INCREMENT    12 STARTS. ATTEMPT NUMBER  1

  NUMBER OF EQUATIONS =     81552     NUMBER OF RHS =    2
  NUMBER OF FLOATING PT. OPERATIONS =  6.96E+09

     CHECK POINT   START OF SOLVER    

     CHECK POINT  END OF SOLVER       

       ELAPSED USER TIME (SEC)      =   1.1000    
       ELAPSED SYSTEM TIME (SEC)    =   0.0000    
       ELAPSED TOTAL CPU TIME (SEC) =   1.1000    
       ELAPSED WALLCLOCK TIME (SEC) =          2

               CONVERGENCE CHECKS FOR EQUILIBRIUM ITERATION     1


 AVERAGE FORCE                       12.1       TIME AVG. FORCE        5.14    
 LARGEST RESIDUAL FORCE            -0.203       AT NODE       1523   DOF  3
   INSTANCE: PART-1-1                                                                        
 LARGEST INCREMENT OF DISP.         0.506       AT NODE         45   DOF  2
   INSTANCE: PART-1-1                                                                        
 LARGEST CORRECTION TO DISP.        0.506       AT NODE         45   DOF  2
   INSTANCE: PART-1-1                                                                        
          FORCE     EQUILIBRIUM NOT ACHIEVED WITHIN TOLERANCE.

 AVERAGE MOMENT                     0.253       TIME AVG. MOMENT      0.107    
 LARGEST RESIDUAL MOMENT           -0.319       AT NODE      13573   DOF  5
   INSTANCE: PART-1-1                                                                        
 LARGEST INCREMENT OF ROTATION     -6.728E-04   AT NODE         45   DOF  4
   INSTANCE: PART-1-1                                                                        
 LARGEST CORRECTION TO ROTATION    -6.728E-04   AT NODE         45   DOF  4
   INSTANCE: PART-1-1                                                                        
          MOMENT    EQUILIBRIUM NOT ACHIEVED WITHIN TOLERANCE.

 COMPATIBILITY ERRORS:
    TYPE                NUMBER EXCEEDING TOLERANCE  MAXIMUM ERROR        IN ELEMENT
 COUPLING DISPLACEMENT               0                1.767E-08                  2
   INSTANCE: {assembly node}                                                                 
 COUPLING ROTATION                   0               -3.915E-08                  9
   INSTANCE: {assembly node}                                                                 

  NUMBER OF EQUATIONS =     81552     NUMBER OF RHS =    2
  NUMBER OF FLOATING PT. OPERATIONS =  6.96E+09

     CHECK POINT   START OF SOLVER    

     CHECK POINT  END OF SOLVER       

       ELAPSED USER TIME (SEC)      =   1.1000    
       ELAPSED SYSTEM TIME (SEC)    =   0.0000    
       ELAPSED TOTAL CPU TIME (SEC) =   1.1000    
       ELAPSED WALLCLOCK TIME (SEC) =          1

               CONVERGENCE CHECKS FOR EQUILIBRIUM ITERATION     2


 AVERAGE FORCE                       12.1       TIME AVG. FORCE        5.14    
 LARGEST RESIDUAL FORCE            -3.194E-06   AT NODE        630   DOF  2
   INSTANCE: PART-1-1                                                                        
 LARGEST INCREMENT OF DISP.         0.506       AT NODE         45   DOF  2
   INSTANCE: PART-1-1                                                                        
 LARGEST CORRECTION TO DISP.       -1.391E-04   AT NODE         45   DOF  3
   INSTANCE: PART-1-1                                                                        
          THE FORCE     EQUILIBRIUM EQUATIONS HAVE CONVERGED

 AVERAGE MOMENT                     0.253       TIME AVG. MOMENT      0.107    
 LARGEST RESIDUAL MOMENT            7.365E-05   AT NODE      13573   DOF  6
   INSTANCE: PART-1-1                                                                        
 LARGEST INCREMENT OF ROTATION     -6.728E-04   AT NODE         45   DOF  4
   INSTANCE: PART-1-1                                                                        
 LARGEST CORRECTION TO ROTATION    -1.044E-05   AT NODE       2215   DOF  5
   INSTANCE: PART-1-1                                                                        
 ESTIMATE OF ROTATION CORRECTION   -3.687E-06
 MOMENT    EQUILIB. ACCEPTED BASED ON SMALL RESIDUAL AND ESTIMATED CORRECTION

 COMPATIBILITY ERRORS:
    TYPE                NUMBER EXCEEDING TOLERANCE  MAXIMUM ERROR        IN ELEMENT
 COUPLING DISPLACEMENT               0               -4.643E-16              13521
   INSTANCE: PART-1-1                                                                        
 COUPLING ROTATION                   0                1.020E-11                  9
   INSTANCE: {assembly node}                                                                 

 ITERATION SUMMARY FOR THE INCREMENT:   2 TOTAL ITERATIONS, OF WHICH
   0 ARE SEVERE DISCONTINUITY ITERATIONS AND  2 ARE EQUILIBRIUM ITERATIONS.


                                INCREMENT    12 SUMMARY


     CURRENT LOAD PROPORTIONALITY FACTOR         0.4412    
     TOTAL ARC LENGTH   0.441    , INCREMENT OF ARC LENGTH   5.000E-02


  INCREMENT    13 STARTS. ATTEMPT NUMBER  1

  NUMBER OF EQUATIONS =     81552     NUMBER OF RHS =    2
  NUMBER OF FLOATING PT. OPERATIONS =  6.96E+09

     CHECK POINT   START OF SOLVER    

     CHECK POINT  END OF SOLVER       

       ELAPSED USER TIME (SEC)      =   1.2000    
       ELAPSED SYSTEM TIME (SEC)    =   0.0000    
       ELAPSED TOTAL CPU TIME (SEC) =   1.2000    
       ELAPSED WALLCLOCK TIME (SEC) =          1

               CONVERGENCE CHECKS FOR EQUILIBRIUM ITERATION     1


 AVERAGE FORCE                       13.5       TIME AVG. FORCE        5.78    
 LARGEST RESIDUAL FORCE            -0.203       AT NODE       1523   DOF  3
   INSTANCE: PART-1-1                                                                        
 LARGEST INCREMENT OF DISP.         0.506       AT NODE         45   DOF  2
   INSTANCE: PART-1-1                                                                        
 LARGEST CORRECTION TO DISP.        0.506       AT NODE         45   DOF  2
   INSTANCE: PART-1-1                                                                        
          FORCE     EQUILIBRIUM NOT ACHIEVED WITHIN TOLERANCE.

 AVERAGE MOMENT                     0.283       TIME AVG. MOMENT      0.120    
 LARGEST RESIDUAL MOMENT           -0.359       AT NODE      13573   DOF  5
   INSTANCE: PART-1-1                                                                        
 LARGEST INCREMENT OF ROTATION     -6.728E-04   AT NODE         45   DOF  4
   INSTANCE: PART-1-1                                                                        
 LARGEST CORRECTION TO ROTATION    -6.728E-04   AT NODE         45   DOF  4
   INSTANCE: PART-1-1                                                                        
          MOMENT    EQUILIBRIUM NOT ACHIEVED WITHIN TOLERANCE.

 COMPATIBILITY ERRORS:
    TYPE                NUMBER EXCEEDING TOLERANCE  MAXIMUM ERROR        IN ELEMENT
 COUPLING DISPLACEMENT               0                1.768E-08                  2
   INSTANCE: {assembly node}                                                                 
 COUPLING ROTATION                   0               -3.905E-08                  9
   INSTANCE: {assembly node}                                                                 

  NUMBER OF EQUATIONS =     81552     NUMBER OF RHS =    2
  NUMBER OF FLOATING PT. OPERATIONS =  6.96E+09

     CHECK POINT   START OF SOLVER    

     CHECK POINT  END OF SOLVER       

       ELAPSED USER TIME (SEC)      =   1.1000    
       ELAPSED SYSTEM TIME (SEC)    =  0.10000    
       ELAPSED TOTAL CPU TIME (SEC) =   1.2000    
       ELAPSED WALLCLOCK TIME (SEC) =          2

               CONVERGENCE CHECKS FOR EQUILIBRIUM ITERATION     2


 AVERAGE FORCE                       13.5       TIME AVG. FORCE        5.78    
 LARGEST RESIDUAL FORCE            -2.822E-05   AT NODE       2292   DOF  2
   INSTANCE: PART-1-1                                                                        
 LARGEST INCREMENT OF DISP.         0.506       AT NODE         45   DOF  2
   INSTANCE: PART-1-1                                                                        
 LARGEST CORRECTION TO DISP.       -5.239E-04   AT NODE       2251   DOF  1
   INSTANCE: PART-1-1                                                                        
          THE FORCE     EQUILIBRIUM EQUATIONS HAVE CONVERGED

 AVERAGE MOMENT                     0.283       TIME AVG. MOMENT      0.120    
 LARGEST RESIDUAL MOMENT            8.198E-05   AT NODE      13573   DOF  6
   INSTANCE: PART-1-1                                                                        
 LARGEST INCREMENT OF ROTATION     -6.727E-04   AT NODE         45   DOF  4
   INSTANCE: PART-1-1                                                                        
 LARGEST CORRECTION TO ROTATION     6.401E-05   AT NODE       2287   DOF  5
   INSTANCE: PART-1-1                                                                        
          ROTATION CORRECTION TOO LARGE COMPARED TO ROTATION INCREMENT

 COMPATIBILITY ERRORS:
    TYPE                NUMBER EXCEEDING TOLERANCE  MAXIMUM ERROR        IN ELEMENT
 COUPLING DISPLACEMENT               0               -4.382E-16              13521
   INSTANCE: PART-1-1                                                                        
 COUPLING ROTATION                   0                1.017E-11                  9
   INSTANCE: {assembly node}                                                                 

  NUMBER OF EQUATIONS =     81552     NUMBER OF RHS =    2
  NUMBER OF FLOATING PT. OPERATIONS =  6.96E+09

     CHECK POINT   START OF SOLVER    

     CHECK POINT  END OF SOLVER       

       ELAPSED USER TIME (SEC)      =   1.1000    
       ELAPSED SYSTEM TIME (SEC)    =   0.0000    
       ELAPSED TOTAL CPU TIME (SEC) =   1.1000    
       ELAPSED WALLCLOCK TIME (SEC) =          2

               CONVERGENCE CHECKS FOR EQUILIBRIUM ITERATION     3


 AVERAGE FORCE                       13.5       TIME AVG. FORCE        5.78    
 LARGEST RESIDUAL FORCE             1.581E-07   AT NODE       7698   DOF  3
   INSTANCE: PART-1-1                                                                        
 LARGEST INCREMENT OF DISP.         0.506       AT NODE         45   DOF  2
   INSTANCE: PART-1-1                                                                        
 LARGEST CORRECTION TO DISP.       -6.318E-06   AT NODE       2238   DOF  1
   INSTANCE: PART-1-1                                                                        
          THE FORCE     EQUILIBRIUM EQUATIONS HAVE CONVERGED

 AVERAGE MOMENT                     0.283       TIME AVG. MOMENT      0.120    
 LARGEST RESIDUAL MOMENT            6.044E-08   AT NODE          6   DOF  6
   INSTANCE:                                                                                 
 LARGEST INCREMENT OF ROTATION     -6.727E-04   AT NODE         45   DOF  4
   INSTANCE: PART-1-1                                                                        
 LARGEST CORRECTION TO ROTATION     7.404E-07   AT NODE       2287   DOF  5
   INSTANCE: PART-1-1                                                                        
          THE MOMENT    EQUILIBRIUM EQUATIONS HAVE CONVERGED

 COMPATIBILITY ERRORS:
    TYPE                NUMBER EXCEEDING TOLERANCE  MAXIMUM ERROR        IN ELEMENT
 COUPLING DISPLACEMENT               0               -4.249E-17              13521
   INSTANCE: PART-1-1                                                                        
 COUPLING ROTATION                   0               -3.221E-15                  2
   INSTANCE: {assembly node}                                                                 

 ITERATION SUMMARY FOR THE INCREMENT:   3 TOTAL ITERATIONS, OF WHICH
   0 ARE SEVERE DISCONTINUITY ITERATIONS AND  3 ARE EQUILIBRIUM ITERATIONS.


                                INCREMENT    13 SUMMARY


     CURRENT LOAD PROPORTIONALITY FACTOR         0.4912    
     TOTAL ARC LENGTH   0.491    , INCREMENT OF ARC LENGTH   5.000E-02


  INCREMENT    14 STARTS. ATTEMPT NUMBER  1

  NUMBER OF EQUATIONS =     81552     NUMBER OF RHS =    2
  NUMBER OF FLOATING PT. OPERATIONS =  6.96E+09

     CHECK POINT   START OF SOLVER    

     CHECK POINT  END OF SOLVER       

       ELAPSED USER TIME (SEC)      =   1.1000    
       ELAPSED SYSTEM TIME (SEC)    =   0.0000    
       ELAPSED TOTAL CPU TIME (SEC) =   1.1000    
       ELAPSED WALLCLOCK TIME (SEC) =          2

               CONVERGENCE CHECKS FOR EQUILIBRIUM ITERATION     1


 AVERAGE FORCE                       14.9       TIME AVG. FORCE        6.43    
 LARGEST RESIDUAL FORCE            -0.203       AT NODE       1523   DOF  3
   INSTANCE: PART-1-1                                                                        
 LARGEST INCREMENT OF DISP.         0.506       AT NODE         45   DOF  2
   INSTANCE: PART-1-1                                                                        
 LARGEST CORRECTION TO DISP.        0.506       AT NODE         45   DOF  2
   INSTANCE: PART-1-1                                                                        
          FORCE     EQUILIBRIUM NOT ACHIEVED WITHIN TOLERANCE.

 AVERAGE MOMENT                     0.314       TIME AVG. MOMENT      0.134    
 LARGEST RESIDUAL MOMENT           -0.400       AT NODE      13573   DOF  5
   INSTANCE: PART-1-1                                                                        
 LARGEST INCREMENT OF ROTATION     -6.727E-04   AT NODE         45   DOF  4
   INSTANCE: PART-1-1                                                                        
 LARGEST CORRECTION TO ROTATION    -6.727E-04   AT NODE         45   DOF  4
   INSTANCE: PART-1-1                                                                        
          MOMENT    EQUILIBRIUM NOT ACHIEVED WITHIN TOLERANCE.

 COMPATIBILITY ERRORS:
    TYPE                NUMBER EXCEEDING TOLERANCE  MAXIMUM ERROR        IN ELEMENT
 COUPLING DISPLACEMENT               0                1.768E-08                  2
   INSTANCE: {assembly node}                                                                 
 COUPLING ROTATION                   0               -3.895E-08                  9
   INSTANCE: {assembly node}                                                                 

  NUMBER OF EQUATIONS =     81552     NUMBER OF RHS =    2
  NUMBER OF FLOATING PT. OPERATIONS =  6.96E+09

     CHECK POINT   START OF SOLVER    

     CHECK POINT  END OF SOLVER       

       ELAPSED USER TIME (SEC)      =   1.2000    
       ELAPSED SYSTEM TIME (SEC)    =   0.0000    
       ELAPSED TOTAL CPU TIME (SEC) =   1.2000    
       ELAPSED WALLCLOCK TIME (SEC) =          2
 

 ***WARNING: THE SYSTEM MATRIX HAS 2 NEGATIVE EIGENVALUES.

     NEGATIVE EIGENVALUES MEAN THAT THE SYSTEM MATRIX IS NOT 
     POSITIVE DEFINITE:
     FOR EXAMPLE, A BIFURCATION (BUCKLING) LOAD MAY HAVE BEEN EXCEEDED.

               CONVERGENCE CHECKS FOR EQUILIBRIUM ITERATION     2


 AVERAGE FORCE                       14.9       TIME AVG. FORCE        6.43    
 LARGEST RESIDUAL FORCE            -4.789E-03   AT NODE       2280   DOF  2
   INSTANCE: PART-1-1                                                                        
 LARGEST INCREMENT OF DISP.         0.506       AT NODE         45   DOF  2
   INSTANCE: PART-1-1                                                                        
 LARGEST CORRECTION TO DISP.        6.860E-03   AT NODE       2239   DOF  1
   INSTANCE: PART-1-1                                                                        
 ESTIMATE OF DISP.    CORRECTION    1.622E-04
 FORCE     EQUILIB. ACCEPTED BASED ON SMALL RESIDUAL AND ESTIMATED CORRECTION

 AVERAGE MOMENT                     0.314       TIME AVG. MOMENT      0.134    
 LARGEST RESIDUAL MOMENT            9.033E-05   AT NODE      13573   DOF  6
   INSTANCE: PART-1-1                                                                        
 LARGEST INCREMENT OF ROTATION     -6.727E-04   AT NODE         45   DOF  4
   INSTANCE: PART-1-1                                                                        
 LARGEST CORRECTION TO ROTATION    -6.967E-04   AT NODE       2287   DOF  5
   INSTANCE: PART-1-1                                                                        
          ROTATION CORRECTION TOO LARGE COMPARED TO ROTATION INCREMENT

 COMPATIBILITY ERRORS:
    TYPE                NUMBER EXCEEDING TOLERANCE  MAXIMUM ERROR        IN ELEMENT
 COUPLING DISPLACEMENT               0               -5.829E-16              13521
   INSTANCE: PART-1-1                                                                        
 COUPLING ROTATION                   0                9.720E-12                  9
   INSTANCE: {assembly node}                                                                 

  NUMBER OF EQUATIONS =     81552     NUMBER OF RHS =    2
  NUMBER OF FLOATING PT. OPERATIONS =  6.96E+09

     CHECK POINT   START OF SOLVER    

     CHECK POINT  END OF SOLVER       

       ELAPSED USER TIME (SEC)      =   1.1000    
       ELAPSED SYSTEM TIME (SEC)    =   0.0000    
       ELAPSED TOTAL CPU TIME (SEC) =   1.1000    
       ELAPSED WALLCLOCK TIME (SEC) =          1
 

 ***WARNING: THE SYSTEM MATRIX HAS 2 NEGATIVE EIGENVALUES.
             EXPLANATIONS ARE SUGGESTED AFTER THE FIRST OCCURRENCE OF THIS MESSAGE.

               CONVERGENCE CHECKS FOR EQUILIBRIUM ITERATION     3


 AVERAGE FORCE                       14.9       TIME AVG. FORCE        6.43    
 LARGEST RESIDUAL FORCE            -2.056E-06   AT NODE       2292   DOF  2
   INSTANCE: PART-1-1                                                                        
 LARGEST INCREMENT OF DISP.         0.506       AT NODE         45   DOF  2
   INSTANCE: PART-1-1                                                                        
 LARGEST CORRECTION TO DISP.       -1.423E-04   AT NODE       2251   DOF  1
   INSTANCE: PART-1-1                                                                        
          THE FORCE     EQUILIBRIUM EQUATIONS HAVE CONVERGED

 AVERAGE MOMENT                     0.314       TIME AVG. MOMENT      0.134    
 LARGEST RESIDUAL MOMENT            1.065E-05   AT NODE          6   DOF  6
   INSTANCE:                                                                                 
 LARGEST INCREMENT OF ROTATION     -6.727E-04   AT NODE         45   DOF  4
   INSTANCE: PART-1-1                                                                        
 LARGEST CORRECTION TO ROTATION    -1.742E-05   AT NODE       2215   DOF  5
   INSTANCE: PART-1-1                                                                        
 ESTIMATE OF ROTATION CORRECTION   -2.054E-06
 MOMENT    EQUILIB. ACCEPTED BASED ON SMALL RESIDUAL AND ESTIMATED CORRECTION

 COMPATIBILITY ERRORS:
    TYPE                NUMBER EXCEEDING TOLERANCE  MAXIMUM ERROR        IN ELEMENT
 COUPLING DISPLACEMENT               0               -5.384E-16              13521
   INSTANCE: PART-1-1                                                                        
 COUPLING ROTATION                   0                3.855E-13                  9
   INSTANCE: {assembly node}                                                                 

 ITERATION SUMMARY FOR THE INCREMENT:   3 TOTAL ITERATIONS, OF WHICH
   0 ARE SEVERE DISCONTINUITY ITERATIONS AND  3 ARE EQUILIBRIUM ITERATIONS.


                                INCREMENT    14 SUMMARY


     CURRENT LOAD PROPORTIONALITY FACTOR         0.5411    
     TOTAL ARC LENGTH   0.541    , INCREMENT OF ARC LENGTH   5.000E-02


  INCREMENT    15 STARTS. ATTEMPT NUMBER  1

  NUMBER OF EQUATIONS =     81552     NUMBER OF RHS =    2
  NUMBER OF FLOATING PT. OPERATIONS =  6.96E+09

     CHECK POINT   START OF SOLVER    

     CHECK POINT  END OF SOLVER       

       ELAPSED USER TIME (SEC)      =   1.1000    
       ELAPSED SYSTEM TIME (SEC)    =   0.0000    
       ELAPSED TOTAL CPU TIME (SEC) =   1.1000    
       ELAPSED WALLCLOCK TIME (SEC) =          2
 

 ***WARNING: THE SYSTEM MATRIX HAS 2 NEGATIVE EIGENVALUES.
             EXPLANATIONS ARE SUGGESTED AFTER THE FIRST OCCURRENCE OF THIS MESSAGE.

               CONVERGENCE CHECKS FOR EQUILIBRIUM ITERATION     1


[...]
   INSTANCE: PART-1-1                                                                        
 LARGEST INCREMENT OF ROTATION      6.036E-03   AT NODE       9462   DOF  5
   INSTANCE: PART-1-1                                                                        
 LARGEST CORRECTION TO ROTATION     6.036E-03   AT NODE       9462   DOF  5
   INSTANCE: PART-1-1                                                                        
          MOMENT    EQUILIBRIUM NOT ACHIEVED WITHIN TOLERANCE.

 COMPATIBILITY ERRORS:
    TYPE                NUMBER EXCEEDING TOLERANCE  MAXIMUM ERROR        IN ELEMENT
 COUPLING DISPLACEMENT               0                4.412E-10                  2
   INSTANCE: {assembly node}                                                                 
 COUPLING ROTATION                   0                1.355E-09                  7
   INSTANCE: {assembly node}                                                                 

  NUMBER OF EQUATIONS =     81552     NUMBER OF RHS =    2
  NUMBER OF FLOATING PT. OPERATIONS =  6.96E+09

     CHECK POINT   START OF SOLVER    

     CHECK POINT  END OF SOLVER       

       ELAPSED USER TIME (SEC)      =   1.2000    
       ELAPSED SYSTEM TIME (SEC)    =   0.0000    
       ELAPSED TOTAL CPU TIME (SEC) =   1.2000    
       ELAPSED WALLCLOCK TIME (SEC) =          2
 

 ***WARNING: THE SYSTEM MATRIX HAS 14 NEGATIVE EIGENVALUES.
             EXPLANATIONS ARE SUGGESTED AFTER THE FIRST OCCURRENCE OF THIS MESSAGE.

               CONVERGENCE CHECKS FOR EQUILIBRIUM ITERATION     2


 AVERAGE FORCE                       27.2       TIME AVG. FORCE        16.9    
 LARGEST RESIDUAL FORCE             6.547E-03   AT NODE       9481   DOF  2
   INSTANCE: PART-1-1                                                                        
 LARGEST INCREMENT OF DISP.         8.117E-02   AT NODE         45   DOF  2
   INSTANCE: PART-1-1                                                                        
 LARGEST CORRECTION TO DISP.       -7.039E-03   AT NODE       9534   DOF  1
   INSTANCE: PART-1-1                                                                        
 ESTIMATE OF DISP.    CORRECTION    3.034E-04
 FORCE     EQUILIB. ACCEPTED BASED ON SMALL RESIDUAL AND ESTIMATED CORRECTION

 AVERAGE MOMENT                     0.620       TIME AVG. MOMENT      0.372    
 LARGEST RESIDUAL MOMENT            1.788E-04   AT NODE          7   DOF  6
   INSTANCE:                                                                                 
 LARGEST INCREMENT OF ROTATION      5.882E-03   AT NODE       9463   DOF  5
   INSTANCE: PART-1-1                                                                        
 LARGEST CORRECTION TO ROTATION    -1.010E-03   AT NODE       9486   DOF  5
   INSTANCE: PART-1-1                                                                        
          ROTATION CORRECTION TOO LARGE COMPARED TO ROTATION INCREMENT

 COMPATIBILITY ERRORS:
    TYPE                NUMBER EXCEEDING TOLERANCE  MAXIMUM ERROR        IN ELEMENT
 COUPLING DISPLACEMENT               0               -2.890E-14              13521
   INSTANCE: PART-1-1                                                                        
 COUPLING ROTATION                   0                5.583E-13                  9
   INSTANCE: {assembly node}                                                                 

  NUMBER OF EQUATIONS =     81552     NUMBER OF RHS =    2
  NUMBER OF FLOATING PT. OPERATIONS =  6.96E+09

     CHECK POINT   START OF SOLVER    

     CHECK POINT  END OF SOLVER       

       ELAPSED USER TIME (SEC)      =   1.2000    
       ELAPSED SYSTEM TIME (SEC)    =   0.0000    
       ELAPSED TOTAL CPU TIME (SEC) =   1.2000    
       ELAPSED WALLCLOCK TIME (SEC) =          1
 

 ***WARNING: THE SYSTEM MATRIX HAS 15 NEGATIVE EIGENVALUES.
             EXPLANATIONS ARE SUGGESTED AFTER THE FIRST OCCURRENCE OF THIS MESSAGE.

               CONVERGENCE CHECKS FOR EQUILIBRIUM ITERATION     3


 AVERAGE FORCE                       27.2       TIME AVG. FORCE        16.9    
 LARGEST RESIDUAL FORCE             3.386E-03   AT NODE       9505   DOF  2
   INSTANCE: PART-1-1                                                                        
 LARGEST INCREMENT OF DISP.         8.097E-02   AT NODE         45   DOF  2
   INSTANCE: PART-1-1                                                                        
 LARGEST CORRECTION TO DISP.        5.577E-03   AT NODE       9546   DOF  1
   INSTANCE: PART-1-1                                                                        
          DISP.    CORRECTION TOO LARGE COMPARED TO DISP.    INCREMENT

 AVERAGE MOMENT                     0.620       TIME AVG. MOMENT      0.372    
 LARGEST RESIDUAL MOMENT            3.466E-04   AT NODE      13573   DOF  5
   INSTANCE: PART-1-1                                                                        
 LARGEST INCREMENT OF ROTATION      5.400E-03   AT NODE       9462   DOF  5
   INSTANCE: PART-1-1                                                                        
 LARGEST CORRECTION TO ROTATION     7.080E-04   AT NODE       9510   DOF  5
   INSTANCE: PART-1-1                                                                        
          ROTATION CORRECTION TOO LARGE COMPARED TO ROTATION INCREMENT

 COMPATIBILITY ERRORS:
    TYPE                NUMBER EXCEEDING TOLERANCE  MAXIMUM ERROR        IN ELEMENT
 COUPLING DISPLACEMENT               0               -6.261E-14                  6
   INSTANCE: {assembly node}                                                                 
 COUPLING ROTATION                   0                3.050E-13                  6
   INSTANCE: {assembly node}                                                                 

  NUMBER OF EQUATIONS =     81552     NUMBER OF RHS =    2
  NUMBER OF FLOATING PT. OPERATIONS =  6.96E+09

     CHECK POINT   START OF SOLVER    

     CHECK POINT  END OF SOLVER       

       ELAPSED USER TIME (SEC)      =   1.2000    
       ELAPSED SYSTEM TIME (SEC)    =  0.10000    
       ELAPSED TOTAL CPU TIME (SEC) =   1.3000    
       ELAPSED WALLCLOCK TIME (SEC) =          1
 

 ***WARNING: THE SYSTEM MATRIX HAS 15 NEGATIVE EIGENVALUES.
             EXPLANATIONS ARE SUGGESTED AFTER THE FIRST OCCURRENCE OF THIS MESSAGE.

               CONVERGENCE CHECKS FOR EQUILIBRIUM ITERATION     4


 AVERAGE FORCE                       27.2       TIME AVG. FORCE        16.9    
 LARGEST RESIDUAL FORCE            -9.894E-06   AT NODE       9588   DOF  2
   INSTANCE: PART-1-1                                                                        
 LARGEST INCREMENT OF DISP.         8.096E-02   AT NODE         45   DOF  2
   INSTANCE: PART-1-1                                                                        
 LARGEST CORRECTION TO DISP.       -3.032E-04   AT NODE       9546   DOF  1
   INSTANCE: PART-1-1                                                                        
          THE FORCE     EQUILIBRIUM EQUATIONS HAVE CONVERGED

 AVERAGE MOMENT                     0.620       TIME AVG. MOMENT      0.372    
 LARGEST RESIDUAL MOMENT            4.737E-06   AT NODE          7   DOF  4
   INSTANCE:                                                                                 
 LARGEST INCREMENT OF ROTATION      5.421E-03   AT NODE       9462   DOF  5
   INSTANCE: PART-1-1                                                                        
 LARGEST CORRECTION TO ROTATION    -3.864E-05   AT NODE       9510   DOF  5
   INSTANCE: PART-1-1                                                                        
          THE MOMENT    EQUILIBRIUM EQUATIONS HAVE CONVERGED

 COMPATIBILITY ERRORS:
    TYPE                NUMBER EXCEEDING TOLERANCE  MAXIMUM ERROR        IN ELEMENT
 COUPLING DISPLACEMENT               0               -2.794E-16                  6
   INSTANCE: {assembly node}                                                                 
 COUPLING ROTATION                   0               -2.460E-14                  6
   INSTANCE: {assembly node}                                                                 
          ARC LENGTH INCREMENT MAY NOW INCREASE TO    1.584E-03

 ITERATION SUMMARY FOR THE INCREMENT:   4 TOTAL ITERATIONS, OF WHICH
   0 ARE SEVERE DISCONTINUITY ITERATIONS AND  4 ARE EQUILIBRIUM ITERATIONS.


                                INCREMENT    34 SUMMARY


     CURRENT LOAD PROPORTIONALITY FACTOR         0.9892    
     TOTAL ARC LENGTH   0.954    , INCREMENT OF ARC LENGTH   1.056E-03


  INCREMENT    35 STARTS. ATTEMPT NUMBER  1

  NUMBER OF EQUATIONS =     81552     NUMBER OF RHS =    2
  NUMBER OF FLOATING PT. OPERATIONS =  6.96E+09

     CHECK POINT   START OF SOLVER    

     CHECK POINT  END OF SOLVER       

       ELAPSED USER TIME (SEC)      =   1.1000    
       ELAPSED SYSTEM TIME (SEC)    =  0.10000    
       ELAPSED TOTAL CPU TIME (SEC) =   1.2000    
       ELAPSED WALLCLOCK TIME (SEC) =          1
 

 ***WARNING: THE SYSTEM MATRIX HAS 15 NEGATIVE EIGENVALUES.
             EXPLANATIONS ARE SUGGESTED AFTER THE FIRST OCCURRENCE OF THIS MESSAGE.

               CONVERGENCE CHECKS FOR EQUILIBRIUM ITERATION     1


 AVERAGE FORCE                       27.6       TIME AVG. FORCE        17.2    
 LARGEST RESIDUAL FORCE             0.255       AT NODE       9451   DOF  3
   INSTANCE: PART-1-1                                                                        
 LARGEST INCREMENT OF DISP.         0.122       AT NODE         45   DOF  2
   INSTANCE: PART-1-1                                                                        
 LARGEST CORRECTION TO DISP.        0.122       AT NODE         45   DOF  2
   INSTANCE: PART-1-1                                                                        
          FORCE     EQUILIBRIUM NOT ACHIEVED WITHIN TOLERANCE.

 AVERAGE MOMENT                     0.630       TIME AVG. MOMENT      0.380    
 LARGEST RESIDUAL MOMENT           -0.190       AT NODE      13573   DOF  5
   INSTANCE: PART-1-1                                                                        
 LARGEST INCREMENT OF ROTATION      7.680E-03   AT NODE       9463   DOF  5
   INSTANCE: PART-1-1                                                                        
 LARGEST CORRECTION TO ROTATION     7.680E-03   AT NODE       9463   DOF  5
   INSTANCE: PART-1-1                                                                        
          MOMENT    EQUILIBRIUM NOT ACHIEVED WITHIN TOLERANCE.

 COMPATIBILITY ERRORS:
    TYPE                NUMBER EXCEEDING TOLERANCE  MAXIMUM ERROR        IN ELEMENT
 COUPLING DISPLACEMENT               0                9.881E-10                  2
   INSTANCE: {assembly node}                                                                 
 COUPLING ROTATION                   0                3.198E-09                  7
   INSTANCE: {assembly node}                                                                 

  NUMBER OF EQUATIONS =     81552     NUMBER OF RHS =    2
  NUMBER OF FLOATING PT. OPERATIONS =  6.96E+09

     CHECK POINT   START OF SOLVER    

     CHECK POINT  END OF SOLVER       

       ELAPSED USER TIME (SEC)      =   1.2000    
       ELAPSED SYSTEM TIME (SEC)    =   0.0000    
       ELAPSED TOTAL CPU TIME (SEC) =   1.2000    
       ELAPSED WALLCLOCK TIME (SEC) =          1
 

 ***WARNING: THE SYSTEM MATRIX HAS 14 NEGATIVE EIGENVALUES.
             EXPLANATIONS ARE SUGGESTED AFTER THE FIRST OCCURRENCE OF THIS MESSAGE.

               CONVERGENCE CHECKS FOR EQUILIBRIUM ITERATION     2


 AVERAGE FORCE                       27.6       TIME AVG. FORCE        17.2    
 LARGEST RESIDUAL FORCE            -9.467E-03   AT NODE       9492   DOF  2
   INSTANCE: PART-1-1                                                                        
 LARGEST INCREMENT OF DISP.         0.122       AT NODE         45   DOF  2
   INSTANCE: PART-1-1                                                                        
 LARGEST CORRECTION TO DISP.        9.559E-03   AT NODE       9450   DOF  1
   INSTANCE: PART-1-1                                                                        
 ESTIMATE OF DISP.    CORRECTION   -3.546E-04
 FORCE     EQUILIB. ACCEPTED BASED ON SMALL RESIDUAL AND ESTIMATED CORRECTION

 AVERAGE MOMENT                     0.630       TIME AVG. MOMENT      0.380    
 LARGEST RESIDUAL MOMENT           -3.734E-04   AT NODE       9475   DOF  5
   INSTANCE: PART-1-1                                                                        
 LARGEST INCREMENT OF ROTATION      7.235E-03   AT NODE       9463   DOF  5
   INSTANCE: PART-1-1                                                                        
 LARGEST CORRECTION TO ROTATION    -1.383E-03   AT NODE       9474   DOF  5
   INSTANCE: PART-1-1                                                                        
          ROTATION CORRECTION TOO LARGE COMPARED TO ROTATION INCREMENT

 COMPATIBILITY ERRORS:
    TYPE                NUMBER EXCEEDING TOLERANCE  MAXIMUM ERROR        IN ELEMENT
 COUPLING DISPLACEMENT               0               -2.879E-13              13521
   INSTANCE: PART-1-1                                                                        
 COUPLING ROTATION                   0                1.470E-12                  6
   INSTANCE: {assembly node}                                                                 

  NUMBER OF EQUATIONS =     81552     NUMBER OF RHS =    2
  NUMBER OF FLOATING PT. OPERATIONS =  6.96E+09

     CHECK POINT   START OF SOLVER    

     CHECK POINT  END OF SOLVER       

       ELAPSED USER TIME (SEC)      =   1.2000    
       ELAPSED SYSTEM TIME (SEC)    =   0.0000    
       ELAPSED TOTAL CPU TIME (SEC) =   1.2000    
       ELAPSED WALLCLOCK TIME (SEC) =          1
 

 ***WARNING: THE SYSTEM MATRIX HAS 15 NEGATIVE EIGENVALUES.
             EXPLANATIONS ARE SUGGESTED AFTER THE FIRST OCCURRENCE OF THIS MESSAGE.

               CONVERGENCE CHECKS FOR EQUILIBRIUM ITERATION     3


 AVERAGE FORCE                       27.6       TIME AVG. FORCE        17.2    
 LARGEST RESIDUAL FORCE             1.877E-03   AT NODE       9493   DOF  2
   INSTANCE: PART-1-1                                                                        
 LARGEST INCREMENT OF DISP.         0.122       AT NODE         45   DOF  2
   INSTANCE: PART-1-1                                                                        
 LARGEST CORRECTION TO DISP.        4.118E-03   AT NODE       9546   DOF  1
   INSTANCE: PART-1-1                                                                        
 ESTIMATE OF DISP.    CORRECTION   -8.166E-04
 FORCE     EQUILIB. ACCEPTED BASED ON SMALL RESIDUAL AND ESTIMATED CORRECTION

 AVERAGE MOMENT                     0.630       TIME AVG. MOMENT      0.380    
 LARGEST RESIDUAL MOMENT           -1.491E-04   AT NODE          7   DOF  6
   INSTANCE:                                                                                 
 LARGEST INCREMENT OF ROTATION      7.004E-03   AT NODE       9463   DOF  5
   INSTANCE: PART-1-1                                                                        
 LARGEST CORRECTION TO ROTATION     4.980E-04   AT NODE       9511   DOF  5
   INSTANCE: PART-1-1                                                                        
          ROTATION CORRECTION TOO LARGE COMPARED TO ROTATION INCREMENT

 COMPATIBILITY ERRORS:
    TYPE                NUMBER EXCEEDING TOLERANCE  MAXIMUM ERROR        IN ELEMENT
 COUPLING DISPLACEMENT               0               -3.764E-15              13521
   INSTANCE: PART-1-1                                                                        
 COUPLING ROTATION                   0               -4.668E-13                  6
   INSTANCE: {assembly node}                                                                 

  NUMBER OF EQUATIONS =     81552     NUMBER OF RHS =    2
  NUMBER OF FLOATING PT. OPERATIONS =  6.96E+09

     CHECK POINT   START OF SOLVER    

     CHECK POINT  END OF SOLVER       

       ELAPSED USER TIME (SEC)      =   1.2000    
       ELAPSED SYSTEM TIME (SEC)    =   0.0000    
       ELAPSED TOTAL CPU TIME (SEC) =   1.2000    
       ELAPSED WALLCLOCK TIME (SEC) =          2
 

 ***WARNING: THE SYSTEM MATRIX HAS 15 NEGATIVE EIGENVALUES.
             EXPLANATIONS ARE SUGGESTED AFTER THE FIRST OCCURRENCE OF THIS MESSAGE.

               CONVERGENCE CHECKS FOR EQUILIBRIUM ITERATION     4


 AVERAGE FORCE                       27.6       TIME AVG. FORCE        17.2    
 LARGEST RESIDUAL FORCE            -6.831E-06   AT NODE       9588   DOF  2
   INSTANCE: PART-1-1                                                                        
 LARGEST INCREMENT OF DISP.         0.122       AT NODE         45   DOF  2
   INSTANCE: PART-1-1                                                                        
 LARGEST CORRECTION TO DISP.       -2.469E-04   AT NODE       9547   DOF  1
   INSTANCE: PART-1-1                                                                        
          THE FORCE     EQUILIBRIUM EQUATIONS HAVE CONVERGED

 AVERAGE MOMENT                     0.630       TIME AVG. MOMENT      0.380    
 LARGEST RESIDUAL MOMENT            3.935E-06   AT NODE          7   DOF  4
   INSTANCE:                                                                                 
 LARGEST INCREMENT OF ROTATION      7.026E-03   AT NODE       9463   DOF  5
   INSTANCE: PART-1-1                                                                        
 LARGEST CORRECTION TO ROTATION    -3.032E-05   AT NODE       9511   DOF  5
   INSTANCE: PART-1-1                                                                        
          THE MOMENT    EQUILIBRIUM EQUATIONS HAVE CONVERGED

 COMPATIBILITY ERRORS:
    TYPE                NUMBER EXCEEDING TOLERANCE  MAXIMUM ERROR        IN ELEMENT
 COUPLING DISPLACEMENT               0               -1.226E-16                  6
   INSTANCE: {assembly node}                                                                 
 COUPLING ROTATION                   0               -3.259E-14                  6
   INSTANCE: {assembly node}                                                                 
          ARC LENGTH INCREMENT MAY NOW INCREASE TO    2.376E-03

 ITERATION SUMMARY FOR THE INCREMENT:   4 TOTAL ITERATIONS, OF WHICH
   0 ARE SEVERE DISCONTINUITY ITERATIONS AND  4 ARE EQUILIBRIUM ITERATIONS.


                                INCREMENT    35 SUMMARY


     CURRENT LOAD PROPORTIONALITY FACTOR          1.001    
     TOTAL ARC LENGTH   0.956    , INCREMENT OF ARC LENGTH   1.584E-03

     LOAD PROPORTIONALITY FACTOR NOW EXCEEDS THE MAXIMUM VALUE SPECIFIED
     THE STEP ENDS AT THIS INCREMENT


          THE ANALYSIS HAS BEEN COMPLETED



     ANALYSIS SUMMARY:
     TOTAL OF         35  INCREMENTS
                       6  CUTBACKS IN AUTOMATIC INCREMENTATION
                     145  ITERATIONS INCLUDING CONTACT ITERATIONS IF PRESENT
                     145  PASSES THROUGH THE EQUATION SOLVER OF WHICH 
                     145  INVOLVE MATRIX DECOMPOSITION, INCLUDING
                       0  DECOMPOSITION(S) OF THE MASS MATRIX
                       1  REORDERING OF EQUATIONS TO MINIMIZE WAVEFRONT
                       0  ADDITIONAL RESIDUAL EVALUATIONS FOR LINE SEARCHES
                       0  ADDITIONAL OPERATOR EVALUATIONS FOR LINE SEARCHES
                       5  WARNING MESSAGES DURING USER INPUT PROCESSING
                     117  WARNING MESSAGES DURING ANALYSIS
                       0  ANALYSIS WARNINGS ARE NUMERICAL PROBLEM MESSAGES
                     117  ANALYSIS WARNINGS ARE NEGATIVE EIGENVALUE MESSAGES
                       0  ERROR MESSAGES



     JOB TIME SUMMARY
       USER TIME (SEC)      =   506.50    
       SYSTEM TIME (SEC)    =   9.7000    
       TOTAL CPU TIME (SEC) =   516.20    
       WALLCLOCK TIME (SEC) =        810
