*Heading
** Job name: quarter Model name: quarterbuckle
** Generated by: Abaqus/CAE 2021
*Preprint, echo=NO, model=NO, history=NO, contact=NO
**
** PARTS
**
*Part, name=Part-1
*End Part
**  
**
** ASSEMBLY
**
*Assembly, name=Assembly
**  
*Instance, name=Part-1-1, part=Part-1
*Node
      1,           0.,           0.,         300.
      2,          50.,           0.,         300.
      3,          50.,           0.,         400.
      4,           0.,           0.,         400.
      5,           0.,          50.,         300.
      6,           0.,          50.,         250.
      7,           0.,          50.,         200.
      8,           0.,           0.,         200.
      9,          50.,          50.,         300.
     10,          50.,          50.,         400.
     11,          50.,          50.,         250.
     12,          50.,          50.,         200.
     13,          50.,           0.,         200.
     14,          50.,           0.,         100.
     15,          50.,          50.,         100.
     16,          50.,          50.,         500.
     17,          50.,           0.,         500.
     18,           0.,          50.,         400.
     19,           0.,           0.,         100.
     20,           0.,          50.,         100.
** ... 13552 like lines cut
*Element, type=S4R
  1,    1,   48, 1597,  121
  2,   48,   49, 1598, 1597
  3,   49,   50, 1599, 1598
  4,   50,   51, 1600, 1599
  5,   51,   52, 1601, 1600
  6,   52,   53, 1602, 1601
  7,   53,   54, 1603, 1602
  8,   54,   55, 1604, 1603
  9,   55,   56, 1605, 1604
 10,   56,   57, 1606, 1605
 11,   57,   58, 1607, 1606
 12,   58,   59, 1608, 1607
 13,   59,    2,   60, 1608
 14,  121, 1597, 1609,  120
 15, 1597, 1598, 1610, 1609
 16, 1598, 1599, 1611, 1610
 17, 1599, 1600, 1612, 1611
 18, 1600, 1601, 1613, 1612
 19, 1601, 1602, 1614, 1613
 20, 1602, 1603, 1615, 1614
** ... 13500 like lines cut
*Node
  13573,   6.28000021,          25.,        1000.
*Nset, nset=Part-1-1-RefPt_, internal
13573, 
*Nset, nset=Set-1
     2,     3,     9,    10,    11,    12,    13,    14,    15,    16,    17,    23,    24,    29,    31,    32
    35,    36,    37,    42,    44,    45,    46,    47,    60,    61,    62,    63,    64,    65,    66,    67
    68,    69,    70,    71,    72,    73,    74,    75,    76,    77,    78,    79,    80,    81,    82,    83
    84,   195,   196,   197,   198,   199,   200,   201,   202,   203,   204,   205,   206,   207,   208,   209
   210,   211,   212,   213,   214,   215,   216,   217,   218,   219,   220,   221,   222,   223,   224,   225
   226,   227,   228,   229,   230,   231,   232,   233,   234,   235,   236,   237,   238,   239,   240,   241
   242,   243,   256,   257,   258,   259,   260,   261,   262,   263,   264,   265,   266,   267,   280,   281
   282,   283,   284,   285,   286,   287,   288,   289,   290,   291,   292,   293,   294,   295,   296,   297
   298,   299,   300,   301,   302,   303,   304,   305,   306,   307,   308,   309,   310,   311,   312,   313
   314,   315,   316,   317,   318,   319,   320,   321,   322,   323,   324,   325,   326,   327,   328,   329
   330,   331,   332,   333,   334,   335,   336,   337,   338,   339,   340,   341,   342,   343,   344,   345
   346,   347,   348,   349,   350,   351,   352,   353,   354,   355,   356,   357,   358,   359,   360,   361
   362,   363,   364,   365,   366,   367,   368,   369,   370,   371,   372,   373,   374,   375,   376,   377
   378,   379,   380,   381,   382,   383,   384,   385,   386,   387,   388,   389,   390,   391,   392,   393
   394,   395,   396,   397,   398,   399,   400,   401,   402,   403,   404,   405,   406,   407,   408,   409
   410,   411,   412,   413,   414,   415,   576,   577,   578,   579,   580,   581,   582,   583,   584,   585
   586,   587,   588,   589,   590,   591,   592,   593,   594,   595,   596,   597,   598,   599,   600,   601
   602,   603,   604,   605,   606,   607,   608,   609,   610,   611,   624,   625,   626,   627,   628,   629
   630,   631,   632,   633,   634,   635,   636,   637,   638,   639,   640,   641,   642,   643,   644,   645
   646,   647,   648,   784,   785,   786,   787,   788,   789,   790,   791,   792,   793,   794,   795,   796
** ... 209 like lines cut
*Elset, elset=Set-1
   677,   678,   679,   680,   681,   682,   683,   684,   685,   686,   687,   688,   689,   690,   691,   692
   693,   694,   695,   696,   697,   698,   699,   700,   701,   702,   703,   704,   705,   706,   707,   708
   709,   710,   711,   712,   713,   714,   715,   716,   717,   718,   719,   720,   721,   722,   723,   724
   725,   726,   727,   728,   729,   730,   731,   732,   733,   734,   735,   736,   737,   738,   739,   740
   741,   742,   743,   744,   745,   746,   747,   748,   749,   750,   751,   752,   753,   754,   755,   756
   757,   758,   759,   760,   761,   762,   763,   764,   765,   766,   767,   768,   769,   770,   771,   772
   773,   774,   775,   776,   777,   778,   779,   780,   781,   782,   783,   784,   785,   786,   787,   788
   789,   790,   791,   792,   793,   794,   795,   796,   797,   798,   799,   800,   801,   802,   803,   804
   805,   806,   807,   808,   809,   810,   811,   812,   813,   814,   815,   816,   817,   818,   819,   820
   821,   822,   823,   824,   825,   826,   827,   828,   829,   830,   831,   832,   833,   834,   835,   836
   837,   838,   839,   840,   841,   842,   843,   844,   845,   846,   847,   848,   849,   850,   851,   852
   853,   854,   855,   856,   857,   858,   859,   860,   861,   862,   863,   864,   865,   866,   867,   868
   869,   870,   871,   872,   873,   874,   875,   876,   877,   878,   879,   880,   881,   882,   883,   884
   885,   886,   887,   888,   889,   890,   891,   892,   893,   894,   895,   896,   897,   898,   899,   900
   901,   902,   903,   904,   905,   906,   907,   908,   909,   910,   911,   912,   913,   914,   915,   916
   917,   918,   919,   920,   921,   922,   923,   924,   925,   926,   927,   928,   929,   930,   931,   932
   933,   934,   935,   936,   937,   938,   939,   940,   941,   942,   943,   944,   945,   946,   947,   948
   949,   950,   951,   952,   953,   954,   955,   956,   957,   958,   959,   960,   961,   962,   963,   964
   965,   966,   967,   968,   969,   970,   971,   972,   973,   974,   975,   976,   977,   978,   979,   980
   981,   982,   983,   984,   985,   986,   987,   988,   989,   990,   991,   992,   993,   994,   995,   996
** ... 192 like lines cut
*Nset, nset=Set-2
     1,     2,     3,     4,     5,     6,     7,     8,     9,    10,    11,    12,    13,    14,    15,    16
    17,    18,    19,    20,    21,    22,    23,    24,    25,    26,    27,    28,    29,    30,    31,    32
    33,    34,    35,    36,    37,    38,    39,    40,    41,    42,    43,    44,    45,    46,    47,    48
    49,    50,    51,    52,    53,    54,    55,    56,    57,    58,    59,    60,    61,    62,    63,    64
    65,    66,    67,    68,    69,    70,    71,    72,    73,    74,    75,    76,    77,    78,    79,    80
    81,    82,    83,    84,    85,    86,    87,    88,    89,    90,    91,    92,    93,    94,    95,    96
    97,    98,    99,   100,   101,   102,   103,   104,   105,   106,   107,   108,   109,   110,   111,   112
   113,   114,   115,   116,   117,   118,   119,   120,   121,   134,   135,   136,   137,   138,   139,   140
   141,   142,   143,   144,   145,   146,   147,   148,   149,   150,   151,   152,   153,   154,   155,   156
   157,   170,   171,   172,   173,   174,   175,   176,   177,   178,   179,   180,   181,   182,   183,   184
   185,   186,   187,   188,   189,   190,   191,   192,   193,   194,   207,   208,   209,   210,   211,   212
   213,   214,   215,   216,   217,   218,   219,   220,   221,   222,   223,   224,   225,   226,   227,   228
   229,   230,   231,   244,   245,   246,   247,   248,   249,   250,   251,   252,   253,   254,   255,   256
   257,   258,   259,   260,   261,   262,   263,   264,   265,   266,   267,   268,   269,   270,   271,   272
   273,   274,   275,   276,   277,   278,   279,   292,   293,   294,   295,   296,   297,   298,   299,   300
   301,   302,   303,   304,   305,   306,   307,   308,   309,   310,   311,   312,   313,   314,   315,   316
   329,   330,   331,   332,   333,   334,   335,   336,   337,   338,   339,   340,   341,   342,   343,   344
   345,   346,   347,   348,   349,   350,   351,   352,   353,   354,   355,   356,   357,   358,   359,   360
   361,   362,   363,   364,   365,   366,   367,   368,   369,   370,   371,   372,   373,   374,   375,   376
   377,   378,   391,   392,   393,   394,   395,   396,   397,   398,   399,   400,   401,   402,   403,   404
** ... 437 like lines cut
*Elset, elset=Set-2
     1,     2,     3,     4,     5,     6,     7,     8,     9,    10,    11,    12,    13,    14,    15,    16
    17,    18,    19,    20,    21,    22,    23,    24,    25,    26,    27,    28,    29,    30,    31,    32
    33,    34,    35,    36,    37,    38,    39,    40,    41,    42,    43,    44,    45,    46,    47,    48
    49,    50,    51,    52,    53,    54,    55,    56,    57,    58,    59,    60,    61,    62,    63,    64
    65,    66,    67,    68,    69,    70,    71,    72,    73,    74,    75,    76,    77,    78,    79,    80
    81,    82,    83,    84,    85,    86,    87,    88,    89,    90,    91,    92,    93,    94,    95,    96
    97,    98,    99,   100,   101,   102,   103,   104,   105,   106,   107,   108,   109,   110,   111,   112
   113,   114,   115,   116,   117,   118,   119,   120,   121,   122,   123,   124,   125,   126,   127,   128
   129,   130,   131,   132,   133,   134,   135,   136,   137,   138,   139,   140,   141,   142,   143,   144
   145,   146,   147,   148,   149,   150,   151,   152,   153,   154,   155,   156,   157,   158,   159,   160
   161,   162,   163,   164,   165,   166,   167,   168,   169,   170,   171,   172,   173,   174,   175,   176
   177,   178,   179,   180,   181,   182,   183,   184,   185,   186,   187,   188,   189,   190,   191,   192
   193,   194,   195,   196,   197,   198,   199,   200,   201,   202,   203,   204,   205,   206,   207,   208
   209,   210,   211,   212,   213,   214,   215,   216,   217,   218,   219,   220,   221,   222,   223,   224
   225,   226,   227,   228,   229,   230,   231,   232,   233,   234,   235,   236,   237,   238,   239,   240
   241,   242,   243,   244,   245,   246,   247,   248,   249,   250,   251,   252,   253,   254,   255,   256
   257,   258,   259,   260,   261,   262,   263,   264,   265,   266,   267,   268,   269,   270,   271,   272
   273,   274,   275,   276,   277,   278,   279,   280,   281,   282,   283,   284,   285,   286,   287,   288
   289,   290,   291,   292,   293,   294,   295,   296,   297,   298,   299,   300,   301,   302,   303,   304
   305,   306,   307,   308,   309,   310,   311,   312,   313,   314,   315,   316,   317,   318,   319,   320
** ... 403 like lines cut
*Nset, nset=Set-3
     1,     4,     5,     6,     7,     8,    18,    19,    20,    21,    22,    25,    26,    27,    28,    30
    33,    34,    38,    39,    40,    41,    43,    97,    98,    99,   100,   101,   102,   103,   104,   105
   106,   107,   108,   109,   110,   111,   112,   113,   114,   115,   116,   117,   118,   119,   120,   121
   122,   123,   124,   125,   126,   127,   128,   129,   130,   131,   132,   133,   134,   135,   136,   137
   138,   139,   140,   141,   142,   143,   144,   145,   146,   147,   148,   149,   150,   151,   152,   153
   154,   155,   156,   157,   158,   159,   160,   161,   162,   163,   164,   165,   166,   167,   168,   169
   170,   171,   172,   173,   174,   175,   176,   177,   178,   179,   180,   181,   182,   183,   184,   185
   186,   187,   188,   189,   190,   191,   192,   193,   194,   416,   417,   418,   419,   420,   421,   422
   423,   424,   425,   426,   427,   428,   429,   430,   431,   432,   433,   434,   435,   436,   437,   438
   439,   440,   453,   454,   455,   456,   457,   458,   459,   460,   461,   462,   463,   464,   465,   466
   467,   468,   469,   470,   471,   472,   473,   474,   475,   476,   477,   478,   479,   480,   481,   482
   483,   484,   485,   486,   487,   488,   489,   490,   491,   492,   493,   494,   495,   496,   497,   498
   499,   500,   501,   502,   503,   504,   505,   506,   507,   508,   509,   510,   511,   512,   513,   514
   515,   516,   517,   518,   519,   520,   521,   522,   523,   524,   525,   526,   551,   552,   553,   554
   555,   556,   557,   558,   559,   560,   561,   562,   563,   564,   565,   566,   567,   568,   569,   570
   571,   572,   573,   574,   575,   661,   662,   663,   664,   665,   666,   667,   668,   669,   670,   671
   672,   673,   674,   675,   676,   677,   678,   679,   680,   681,   682,   683,   684,   685,   698,   699
   700,   701,   702,   703,   704,   705,   706,   707,   708,   709,   710,   711,   712,   713,   714,   715
   716,   717,   718,   719,   720,   721,   722,   723,   724,   725,   726,   727,   728,   729,   730,   731
   732,   733,   734,   735,   736,   737,   738,   739,   740,   741,   742,   743,   744,   745,   746,   747
** ... 209 like lines cut
*Elset, elset=Set-3
   339,   340,   341,   342,   343,   344,   345,   346,   347,   348,   349,   350,   351,   352,   353,   354
   355,   356,   357,   358,   359,   360,   361,   362,   363,   364,   365,   366,   367,   368,   369,   370
   371,   372,   373,   374,   375,   376,   377,   378,   379,   380,   381,   382,   383,   384,   385,   386
   387,   388,   389,   390,   391,   392,   393,   394,   395,   396,   397,   398,   399,   400,   401,   402
   403,   404,   405,   406,   407,   408,   409,   410,   411,   412,   413,   414,   415,   416,   417,   418
   419,   420,   421,   422,   423,   424,   425,   426,   427,   428,   429,   430,   431,   432,   433,   434
   435,   436,   437,   438,   439,   440,   441,   442,   443,   444,   445,   446,   447,   448,   449,   450
   451,   452,   453,   454,   455,   456,   457,   458,   459,   460,   461,   462,   463,   464,   465,   466
   467,   468,   469,   470,   471,   472,   473,   474,   475,   476,   477,   478,   479,   480,   481,   482
   483,   484,   485,   486,   487,   488,   489,   490,   491,   492,   493,   494,   495,   496,   497,   498
   499,   500,   501,   502,   503,   504,   505,   506,   507,   508,   509,   510,   511,   512,   513,   514
   515,   516,   517,   518,   519,   520,   521,   522,   523,   524,   525,   526,   527,   528,   529,   530
   531,   532,   533,   534,   535,   536,   537,   538,   539,   540,   541,   542,   543,   544,   545,   546
   547,   548,   549,   550,   551,   552,   553,   554,   555,   556,   557,   558,   559,   560,   561,   562
   563,   564,   565,   566,   567,   568,   569,   570,   571,   572,   573,   574,   575,   576,   577,   578
   579,   580,   581,   582,   583,   584,   585,   586,   587,   588,   589,   590,   591,   592,   593,   594
   595,   596,   597,   598,   599,   600,   601,   602,   603,   604,   605,   606,   607,   608,   609,   610
   611,   612,   613,   614,   615,   616,   617,   618,   619,   620,   621,   622,   623,   624,   625,   626
   627,   628,   629,   630,   631,   632,   633,   634,   635,   636,   637,   638,   639,   640,   641,   642
   643,   644,   645,   646,   647,   648,   649,   650,   651,   652,   653,   654,   655,   656,   657,   658
** ... 192 like lines cut
*Nset, nset=Set-4
     2,     3,     9,    10,    11,    16,    17,    23,    29,    31,    32,    35,    36,    37,    42,    44
    45,    47,    60,    61,    62,    63,    64,    65,    66,    67,    68,    69,    70,    71,    72,    73
    74,    75,    76,    77,    78,    79,    80,    81,    82,    83,    84,   195,   196,   197,   198,   199
   200,   201,   202,   203,   204,   205,   206,   207,   208,   209,   210,   211,   212,   213,   214,   215
   216,   217,   218,   219,   220,   221,   222,   223,   224,   225,   226,   227,   228,   229,   230,   231
   232,   233,   234,   235,   236,   237,   238,   239,   240,   241,   242,   243,   256,   257,   258,   259
   260,   261,   262,   263,   264,   265,   266,   267,   354,   355,   356,   357,   358,   359,   360,   361
   362,   363,   364,   365,   366,   367,   368,   369,   370,   371,   372,   373,   374,   375,   376,   377
   378,   379,   380,   381,   382,   383,   384,   385,   386,   387,   388,   389,   390,   391,   392,   393
   394,   395,   396,   397,   398,   399,   400,   401,   402,   403,   404,   405,   406,   407,   408,   409
   410,   411,   412,   413,   414,   415,   588,   589,   590,   591,   592,   593,   594,   595,   596,   597
   598,   599,   784,   785,   786,   787,   788,   789,   790,   791,   792,   793,   794,   795,   796,   797
   798,   799,   800,   801,   802,   803,   804,   805,   806,   807,   808,   821,   822,   823,   824,   825
   826,   827,   828,   829,   830,   831,   832,   845,   846,   847,   848,   849,   850,   851,   852,   853
   854,   855,   856,   857,   858,   859,   860,   861,   862,   863,   864,   865,   866,   867,   868,   869
   969,   970,   971,   972,   973,   974,   975,   976,   977,   978,   979,   980,   981,   982,   983,   984
   985,   986,   987,   988,   989,   990,   991,   992,   993,   994,   995,   996,   997,   998,   999,  1000
  1001,  1002,  1003,  1004,  1005,  1006,  1007,  1008,  1009,  1010,  1011,  1012,  1013,  1014,  1015,  1016
  1017,  1030,  1031,  1032,  1033,  1034,  1035,  1036,  1037,  1038,  1039,  1040,  1041,  1042,  1043,  1044
  1045,  1046,  1047,  1048,  1049,  1050,  1051,  1052,  1053,  1054,  1153,  1154,  1155,  1156,  1157,  1158
** ... 152 like lines cut
*Elset, elset=Set-4
   677,   678,   679,   680,   681,   682,   683,   684,   685,   686,   687,   688,   689,   690,   691,   692
   693,   694,   695,   696,   697,   698,   699,   700,   701,   702,   703,   704,   705,   706,   707,   708
   709,   710,   711,   712,   713,   714,   715,   716,   717,   718,   719,   720,   721,   722,   723,   724
   725,   726,   727,   728,   729,   730,   731,   732,   733,   734,   735,   736,   737,   738,   739,   740
   741,   742,   743,   744,   745,   746,   747,   748,   749,   750,   751,   752,   753,   754,   755,   756
   757,   758,   759,   760,   761,   762,   763,   764,   765,   766,   767,   768,   769,   770,   771,   772
   773,   774,   775,   776,   777,   778,   779,   780,   781,   782,   783,   784,   785,   786,   787,   788
   789,   790,   791,   792,   793,   794,   795,   796,   797,   798,   799,   800,   801,   802,   803,   804
   805,   806,   807,   808,   809,   810,   811,   812,   813,   814,   815,   816,   817,   818,   819,   820
   821,   822,   823,   824,   825,   826,   827,   828,   829,   830,   831,   832,   833,   834,   835,   836
   837,   838,   839,   840,   841,   842,   843,   844,   845,   846,   847,   848,   849,   850,   851,   852
   853,   854,   855,   856,   857,   858,   859,   860,   861,   862,   863,   864,   865,   866,   867,   868
   869,   870,   871,   872,   873,   874,   875,   876,   877,   878,   879,   880,   881,   882,   883,   884
   885,   886,   887,   888,   889,   890,   891,   892,   893,   894,   895,   896,   897,   898,   899,   900
   901,   902,   903,   904,   905,   906,   907,   908,   909,   910,   911,   912,   913,   914,   915,   916
   917,   918,   919,   920,   921,   922,   923,   924,   925,   926,   927,   928,   929,   930,   931,   932
   933,   934,   935,   936,   937,   938,   939,   940,   941,   942,   943,   944,   945,   946,   947,   948
   949,   950,   951,   952,   953,   954,   955,   956,   957,   958,   959,   960,   961,   962,   963,   964
   965,   966,   967,   968,   969,   970,   971,   972,   973,   974,   975,   976,   977,   978,   979,   980
   981,   982,   983,   984,   985,   986,   987,   988,   989,   990,   991,   992,   993,   994,   995,   996
** ... 139 like lines cut
*Nset, nset=Set-5
    11,    12,    13,    14,    15,    23,    24,    46,   280,   281,   282,   283,   284,   285,   286,   287
   288,   289,   290,   291,   292,   293,   294,   295,   296,   297,   298,   299,   300,   301,   302,   303
   304,   305,   306,   307,   308,   309,   310,   311,   312,   313,   314,   315,   316,   317,   318,   319
   320,   321,   322,   323,   324,   325,   326,   327,   328,   329,   330,   331,   332,   333,   334,   335
   336,   337,   338,   339,   340,   341,   342,   343,   344,   345,   346,   347,   348,   349,   350,   351
   352,   353,   576,   577,   578,   579,   580,   581,   582,   583,   584,   585,   586,   587,   588,   589
   590,   591,   592,   593,   594,   595,   596,   597,   598,   599,   600,   601,   602,   603,   604,   605
   606,   607,   608,   609,   610,   611,   624,   625,   626,   627,   628,   629,   630,   631,   632,   633
   634,   635,   636,   637,   638,   639,   640,   641,   642,   643,   644,   645,   646,   647,   648,  1337
  1338,  1339,  1340,  1341,  1342,  1343,  1344,  1345,  1346,  1347,  1348,  1349,  1350,  1351,  1352,  1353
  1354,  1355,  1356,  1357,  1358,  1359,  1360,  1361,  1560,  1561,  1562,  1563,  1564,  1565,  1566,  1567
  1568,  1569,  1570,  1571,  2641,  2642,  2643,  2644,  2645,  2646,  2647,  2648,  2649,  2650,  2651,  2652
  2653,  2654,  2655,  2656,  2657,  2658,  2659,  2660,  2661,  2662,  2663,  2664,  2665,  2666,  2667,  2668
  2669,  2670,  2671,  2672,  2673,  2674,  2675,  2676,  2677,  2678,  2679,  2680,  2681,  2682,  2683,  2684
  2685,  2686,  2687,  2688,  2689,  2690,  2691,  2692,  2693,  2694,  2695,  2696,  2697,  2698,  2699,  2700
  2701,  2702,  2703,  2704,  2705,  2706,  2707,  2708,  2709,  2710,  2711,  2712,  2713,  2714,  2715,  2716
  2717,  2718,  2719,  2720,  2721,  2722,  2723,  2724,  2725,  2726,  2727,  2728,  2729,  2730,  2731,  2732
  2733,  2734,  2735,  2736,  2737,  2738,  2739,  2740,  2741,  2742,  2743,  2744,  2745,  2746,  2747,  2748
  2749,  2750,  2751,  2752,  2753,  2754,  2755,  2756,  2757,  2758,  2759,  2760,  2761,  2762,  2763,  2764
  2765,  2766,  2767,  2768,  2769,  2770,  2771,  2772,  2773,  2774,  2775,  2776,  2777,  2778,  2779,  2780
** ... 38 like lines cut
*Elset, elset=Set-5
  1184,  1185,  1186,  1187,  1188,  1189,  1190,  1191,  1192,  1193,  1194,  1195,  1196,  1197,  1198,  1199
  1200,  1201,  1202,  1203,  1204,  1205,  1206,  1207,  1208,  1209,  1210,  1211,  1212,  1213,  1214,  1215
  1216,  1217,  1218,  1219,  1220,  1221,  1222,  1223,  1224,  1225,  1226,  1227,  1228,  1229,  1230,  1231
  1232,  1233,  1234,  1235,  1236,  1237,  1238,  1239,  1240,  1241,  1242,  1243,  1244,  1245,  1246,  1247
  1248,  1249,  1250,  1251,  1252,  1253,  1254,  1255,  1256,  1257,  1258,  1259,  1260,  1261,  1262,  1263
  1264,  1265,  1266,  1267,  1268,  1269,  1270,  1271,  1272,  1273,  1274,  1275,  1276,  1277,  1278,  1279
  1280,  1281,  1282,  1283,  1284,  1285,  1286,  1287,  1288,  1289,  1290,  1291,  1292,  1293,  1294,  1295
  1296,  1297,  1298,  1299,  1300,  1301,  1302,  1303,  1304,  1305,  1306,  1307,  1308,  1309,  1310,  1311
  1312,  1313,  1314,  1315,  1316,  1317,  1318,  1319,  1320,  1321,  1322,  1323,  1324,  1325,  1326,  1327
  1328,  1329,  1330,  1331,  1332,  1333,  1334,  1335,  1336,  1337,  1338,  1339,  1340,  1341,  1342,  1343
  1344,  1345,  1346,  1347,  1348,  1349,  1350,  1351,  1352,  1353,  1354,  1355,  1356,  1357,  1358,  1359
  1360,  1361,  1362,  1363,  1364,  1365,  1366,  1367,  1368,  1369,  1370,  1371,  1372,  1373,  1374,  1375
  1376,  1377,  1378,  1379,  1380,  1381,  1382,  1383,  1384,  1385,  1386,  1387,  1388,  1389,  1390,  1391
  1392,  1393,  1394,  1395,  1396,  1397,  1398,  1399,  1400,  1401,  1402,  1403,  1404,  1405,  1406,  1407
  1408,  1409,  1410,  1411,  1412,  1413,  1414,  1415,  1416,  1417,  1418,  1419,  1420,  1421,  1422,  1423
  1424,  1425,  1426,  1427,  1428,  1429,  1430,  1431,  1432,  1433,  1434,  1435,  1436,  1437,  1438,  1439
  1440,  1441,  1442,  1443,  1444,  1445,  1446,  1447,  1448,  1449,  1450,  1451,  1452,  1453,  1454,  1455
  1456,  1457,  1458,  1459,  1460,  1461,  1462,  1463,  1464,  1465,  1466,  1467,  1468,  1469,  1470,  1471
  1472,  1473,  1474,  1475,  1476,  1477,  1478,  1479,  1480,  1481,  1482,  1483,  1484,  1485,  1486,  1487
  1488,  1489,  1490,  1491,  1492,  1493,  1494,  1495,  1496,  1497,  1498,  1499,  1500,  1501,  1502,  1503
** ... 33 like lines cut
*Nset, nset=Force
    1,    2,    3,    4,    5,    6,    7,    8,    9,   10,   11,   12,   13,   14,   15,   16
   17,   18,   19,   20,   21,   22,   23,   24,   25,   26,   27,   28,   29,   30,   31,   32
   33,   34,   35,   36,   37,   38,   39,   40,   41,   42,   43,   44,   45,   46,   47,   60
   61,   62,   63,   64,   65,   66,   67,   68,   69,   70,   71,   72,   73,   74,   75,   76
   77,   78,   79,   80,   81,   82,   83,   84,   97,   98,   99,  100,  101,  102,  103,  104
  105,  106,  107,  108,  109,  110,  111,  112,  113,  114,  115,  116,  117,  118,  119,  120
  121,  134,  135,  136,  137,  138,  139,  140,  141,  142,  143,  144,  145,  146,  147,  148
  149,  150,  151,  152,  153,  154,  155,  156,  157,  170,  171,  172,  173,  174,  175,  176
  177,  178,  179,  180,  181,  182,  183,  184,  185,  186,  187,  188,  189,  190,  191,  192
  193,  194,  207,  208,  209,  210,  211,  212,  213,  214,  215,  216,  217,  218,  219,  220
  221,  222,  223,  224,  225,  226,  227,  228,  229,  230,  231,  256,  257,  258,  259,  260
  261,  262,  263,  264,  265,  266,  267,  292,  293,  294,  295,  296,  297,  298,  299,  300
  301,  302,  303,  304,  305,  306,  307,  308,  309,  310,  311,  312,  313,  314,  315,  316
  329,  330,  331,  332,  333,  334,  335,  336,  337,  338,  339,  340,  341,  342,  343,  344
  345,  346,  347,  348,  349,  350,  351,  352,  353,  354,  355,  356,  357,  358,  359,  360
  361,  362,  363,  364,  365,  366,  367,  368,  369,  370,  371,  372,  373,  374,  375,  376
  377,  378,  391,  392,  393,  394,  395,  396,  397,  398,  399,  400,  401,  402,  403,  404
  405,  406,  407,  408,  409,  410,  411,  412,  413,  414,  415,  416,  417,  418,  419,  420
  421,  422,  423,  424,  425,  426,  427,  428,  429,  430,  431,  432,  433,  434,  435,  436
  437,  438,  439,  440,  465,  466,  467,  468,  469,  470,  471,  472,  473,  474,  475,  476
** ... 46 like lines cut
*Elset, elset=Force
     1,    13,    14,    26,    27,    39,    40,    52,    53,    65,    66,    78,    79,    91,    92,   104
   105,   117,   118,   130,   131,   143,   144,   156,   157,   169,   170,   182,   183,   195,   196,   208
   209,   221,   222,   234,   235,   247,   248,   260,   261,   273,   274,   286,   287,   299,   300,   312
   313,   325,   326,   338,   339,   351,   352,   364,   365,   377,   378,   390,   391,   403,   404,   416
   417,   429,   430,   442,   443,   455,   456,   468,   469,   481,   482,   494,   495,   507,   508,   520
   521,   533,   534,   546,   547,   559,   560,   572,   573,   585,   586,   598,   599,   611,   612,   624
   625,   637,   638,   650,   651,   663,   664,   676,   677,   689,   690,   702,   703,   715,   716,   728
   729,   741,   742,   754,   755,   767,   768,   780,   781,   793,   794,   806,   807,   819,   820,   832
   833,   845,   846,   858,   859,   871,   872,   884,   885,   897,   898,   910,   911,   923,   924,   936
   937,   949,   950,   962,   963,   975,   976,   988,   989,  1001,  1002,  1014,  1015,  1027,  1028,  1040
  1041,  1053,  1054,  1066,  1067,  1079,  1080,  1092,  1093,  1105,  1106,  1118,  1119,  1131,  1132,  1144
  1145,  1157,  1158,  1170,  1171,  1183,  1184,  1196,  1197,  1209,  1210,  1222,  1223,  1235,  1236,  1248
  1249,  1261,  1262,  1274,  1275,  1287,  1288,  1300,  1301,  1313,  1314,  1326,  1327,  1339,  1340,  1352
  1353,  1365,  1366,  1378,  1379,  1391,  1392,  1404,  1405,  1417,  1418,  1430,  1431,  1443,  1444,  1456
  1457,  1469,  1470,  1482,  1483,  1495,  1496,  1508,  1509,  1521,  1522,  1534,  1535,  1547,  1548,  1560
  1561,  1573,  1574,  1586,  1587,  1599,  1600,  1612,  1613,  1625,  1626,  1638,  1639,  1651,  1652,  1664
  1665,  1677,  1678,  1690,  1691,  1703,  1704,  1716,  1717,  1729,  1730,  1742,  1743,  1755,  1756,  1768
  1769,  1781,  1782,  1794,  1795,  1807,  1808,  1820,  1821,  1833,  1834,  1846,  1847,  1859,  1860,  1872
  1873,  1885,  1886,  1898,  1899,  1911,  1912,  1924,  1925,  1937,  1938,  1950,  1951,  1963,  1964,  1976
  1977,  1989,  1990,  2002,  2003,  2015,  2016,  2028,  2029,  2041,  2042,  2054,  2055,  2067,  2068,  2080
** ... 110 like lines cut
*Nset, nset=LETop
  3,  6, 12, 20, 21, 28, 34, 38, 41, 43
*Nset, nset=LEBottom
  8, 19, 22, 25, 27, 30, 33, 39, 40
*Nset, nset=TETop
  7, 11, 15, 18, 24, 35, 36, 37, 42, 47
*Nset, nset=TEBottom
  4, 13, 14, 23, 29, 31, 32, 44, 45, 46
** Section: Flange
*Shell Section, elset=Set-2, composite, symmetric
0.125, 3, CFRP, 90.
0.125, 3, CFRP, 90.
0.125, 3, CFRP, 90.
0.125, 3, CFRP, 90.
0.125, 3, CFRP, 90.
0.125, 3, CFRP, 90.
0.02, 3, GFRP, 65.
0.125, 3, CFRP, 115.
0.02, 3, GFRP, 115.
0.125, 3, CFRP, 115.
** Section: shear web
*Shell Section, elset=Set-3, composite, symmetric
0.125, 3, CFRP, 90.
0.02, 3, GFRP, 65.
0.125, 3, CFRP, 115.
0.02, 3, GFRP, 115.
0.125, 3, CFRP, 115.
** Section: buckle
*Shell Section, elset=Set-4, composite, layup=Buckle, symmetric
0.02, 3, GFRP, 115.
0.125, 3, CFRP, 115.
** Section: shear web
*Shell Section, elset=Set-5, composite, symmetric
0.125, 3, CFRP, 90.
0.02, 3, GFRP, 65.
0.125, 3, CFRP, 115.
0.02, 3, GFRP, 115.
0.125, 3, CFRP, 115.
*End Instance
**  
*Node
      1,          25.,          25.,         200.
*Node
      2,   6.26000023,          25.,         400.
*Node
      3,   6.28000021,          25.,         600.
*Node
      4,   6.28000021,          25.,         800.
*Node
      5,          25.,          25.,         100.
*Node
      6,   6.28000021,          25.,         300.
*Node
      7,   6.28000021,          25.,         500.
*Node
      8,   6.28000021,          25.,         700.
*Node
      9,   6.28000021,          25.,         900.
*Nset, nset=Set-1, instance=Part-1-1
   40,   41,   45,   47, 1104, 1105, 1106, 1107, 1108, 1109, 1110, 1111, 1112, 1113, 1114, 1115
 1252, 1253, 1254, 1255, 1256, 1257, 1258, 1259, 1260, 1261, 1262, 1263, 1511, 1512, 1513, 1514
 1515, 1516, 1517, 1518, 1519, 1520, 1521, 1522, 1523, 1524, 1525, 1526, 1527, 1528, 1529, 1530
 1531, 1532, 1533, 1534
*Elset, elset=Set-1, instance=Part-1-1
  6241,  6242,  6243,  6244,  6245,  6246,  6247,  6248,  6249,  6250,  6251,  6252,  6253,  6917,  6918,  6919
  6920,  6921,  6922,  6923,  6924,  6925,  6926,  6927,  6928,  6929, 10804, 10805, 10806, 10807, 10808, 10809
 10810, 10811, 10812, 10813, 10814, 10815, 10816, 11142, 11143, 11144, 11145, 11146, 11147, 11148, 11149, 11150
 11151, 11152, 11153, 11154
*Nset, nset=Set-6, instance=Part-1-1
   21,   22,   24,   46,  490,  491,  492,  493,  494,  495,  496,  497,  498,  499,  500,  501
  649,  650,  651,  652,  653,  654,  655,  656,  657,  658,  659,  660, 1325, 1326, 1327, 1328
 1329, 1330, 1331, 1332, 1333, 1334, 1335, 1336, 1560, 1561, 1562, 1563, 1564, 1565, 1566, 1567
 1568, 1569, 1570, 1571
*Elset, elset=Set-6, instance=Part-1-1
  2523,  2524,  2525,  2526,  2527,  2528,  2529,  2530,  2531,  2532,  2533,  2534,  2535,  3368,  3369,  3370
  3371,  3372,  3373,  3374,  3375,  3376,  3377,  3378,  3379,  3380,  8100,  8101,  8102,  8103,  8104,  8105
  8106,  8107,  8108,  8109,  8110,  8111,  8112, 12156, 12157, 12158, 12159, 12160, 12161, 12162, 12163, 12164
 12165, 12166, 12167, 12168
*Nset, nset=Set-7, instance=Part-1-1
   21,   22,   24,   46,  490,  491,  492,  493,  494,  495,  496,  497,  498,  499,  500,  501
  649,  650,  651,  652,  653,  654,  655,  656,  657,  658,  659,  660, 1325, 1326, 1327, 1328
 1329, 1330, 1331, 1332, 1333, 1334, 1335, 1336, 1560, 1561, 1562, 1563, 1564, 1565, 1566, 1567
 1568, 1569, 1570, 1571
*Elset, elset=Set-7, instance=Part-1-1
  2523,  2524,  2525,  2526,  2527,  2528,  2529,  2530,  2531,  2532,  2533,  2534,  2535,  3368,  3369,  3370
  3371,  3372,  3373,  3374,  3375,  3376,  3377,  3378,  3379,  3380,  8100,  8101,  8102,  8103,  8104,  8105
  8106,  8107,  8108,  8109,  8110,  8111,  8112, 12156, 12157, 12158, 12159, 12160, 12161, 12162, 12163, 12164
 12165, 12166, 12167, 12168
*Nset, nset=Set-14, instance=Part-1-1
 13573,
*Nset, nset=Set-15, instance=Part-1-1
 13573,
*Nset, nset=Set-16, instance=Part-1-1
   21,   22,   24,   46,  490,  491,  492,  493,  494,  495,  496,  497,  498,  499,  500,  501
 1325, 1326, 1327, 1328, 1329, 1330, 1331, 1332, 1333, 1334, 1335, 1336, 1560, 1561, 1562, 1563
 1564, 1565, 1566, 1567, 1568, 1569, 1570, 1571
*Elset, elset=Set-16, instance=Part-1-1
  2523,  2524,  2525,  2526,  2527,  2528,  2529,  2530,  2531,  2532,  2533,  2534,  2535,  8100,  8101,  8102
  8103,  8104,  8105,  8106,  8107,  8108,  8109,  8110,  8111,  8112, 12156, 12157, 12158, 12159, 12160, 12161
 12162, 12163, 12164, 12165, 12166, 12167, 12168
*Nset, nset=Set-41, instance=Part-1-1
 13573,
*Nset, nset=Set-41, generate
 1,  9,  1
*Nset, nset=Set-42, instance=Part-1-1
   21,   22,   24,   46,  490,  491,  492,  493,  494,  495,  496,  497,  498,  499,  500,  501
  649,  650,  651,  652,  653,  654,  655,  656,  657,  658,  659,  660, 1325, 1326, 1327, 1328
 1329, 1330, 1331, 1332, 1333, 1334, 1335, 1336, 1560, 1561, 1562, 1563, 1564, 1565, 1566, 1567
 1568, 1569, 1570, 1571
*Elset, elset=Set-42, instance=Part-1-1
  2523,  2524,  2525,  2526,  2527,  2528,  2529,  2530,  2531,  2532,  2533,  2534,  2535,  3368,  3369,  3370
  3371,  3372,  3373,  3374,  3375,  3376,  3377,  3378,  3379,  3380,  8100,  8101,  8102,  8103,  8104,  8105
  8106,  8107,  8108,  8109,  8110,  8111,  8112, 12156, 12157, 12158, 12159, 12160, 12161, 12162, 12163, 12164
 12165, 12166, 12167, 12168
*Nset, nset=Set-43, instance=Part-1-1
 13573,
*Nset, nset=Set-43, generate
 1,  9,  1
*Nset, nset=Set-46
 5,
*Nset, nset=Set-47
 1,
*Nset, nset=Set-48
 6,
*Nset, nset=Set-49
 2,
*Nset, nset=Set-50
 7,
*Nset, nset=Set-51
 3,
*Nset, nset=Set-52
 8,
*Nset, nset=Set-53
 4,
*Nset, nset=Set-54
 9,
*Nset, nset=Set-55, instance=Part-1-1
 13573,
*Nset, nset=m_Set-12, instance=Part-1-1
 13573,
*Nset, nset=m_Set-31
 5,
*Nset, nset=m_Set-33
 6,
*Nset, nset=m_Set-35
 7,
*Nset, nset=m_Set-37
 8,
*Nset, nset=m_Set-39
 9,
*Nset, nset=m_Set-44
 6,
*Nset, nset=s_Set-12, instance=Part-1-1
   40,   41,   45,   47, 1104, 1105, 1106, 1107, 1108, 1109, 1110, 1111, 1112, 1113, 1114, 1115
 1252, 1253, 1254, 1255, 1256, 1257, 1258, 1259, 1260, 1261, 1262, 1263, 1511, 1512, 1513, 1514
 1515, 1516, 1517, 1518, 1519, 1520, 1521, 1522, 1523, 1524, 1525, 1526, 1527, 1528, 1529, 1530
 1531, 1532, 1533, 1534
*Elset, elset=s_Set-12, instance=Part-1-1
  6241,  6242,  6243,  6244,  6245,  6246,  6247,  6248,  6249,  6250,  6251,  6252,  6253,  6917,  6918,  6919
  6920,  6921,  6922,  6923,  6924,  6925,  6926,  6927,  6928,  6929, 10804, 10805, 10806, 10807, 10808, 10809
 10810, 10811, 10812, 10813, 10814, 10815, 10816, 11142, 11143, 11144, 11145, 11146, 11147, 11148, 11149, 11150
 11151, 11152, 11153, 11154
*Nset, nset=s_Set-31, instance=Part-1-1
 14, 15, 19, 20
*Nset, nset=s_Set-35, instance=Part-1-1
  6, 11, 23, 25
*Nset, nset=s_Set-37, instance=Part-1-1
 30, 31, 34, 35
*Nset, nset=s_Set-39, instance=Part-1-1
 38, 39, 42, 44
*Nset, nset=s_Set-43, instance=Part-1-1
 16, 17, 25, 26
*Nset, nset=s_Set-44, instance=Part-1-1
 1, 2, 5, 9
*Nset, nset=_PickedSet51, internal, instance=Part-1-1
  7,  8, 12, 13
*Nset, nset=_PickedSet52, internal
 1,
*Nset, nset=_PickedSet53, internal, instance=Part-1-1
  3,  4, 18
*Nset, nset=_PickedSet54, internal
 2,
*Nset, nset=_PickedSet55, internal, instance=Part-1-1
 27, 28, 29, 37
*Nset, nset=_PickedSet56, internal
 3,
*Nset, nset=_PickedSet57, internal, instance=Part-1-1
 32, 33, 36, 43
*Nset, nset=_PickedSet58, internal
 4,
*Nset, nset=_PickedSet59, internal, instance=Part-1-1
 40, 41, 45, 47
*Nset, nset=_PickedSet60, internal, instance=Part-1-1
 13573,
*Surface, type=NODE, name=_PickedSet51_CNS_, internal
_PickedSet51, 1.
*Surface, type=NODE, name=_PickedSet53_CNS_, internal
_PickedSet53, 1.
*Surface, type=NODE, name=_PickedSet55_CNS_, internal
_PickedSet55, 1.
*Surface, type=NODE, name=_PickedSet57_CNS_, internal
_PickedSet57, 1.
*Surface, type=NODE, name=_PickedSet59_CNS_, internal
_PickedSet59, 1.
*Surface, type=NODE, name=s_Set-31_CNS_, internal
s_Set-31, 1.
*Surface, type=NODE, name=s_Set-43_CNS_, internal
s_Set-43, 1.
*Surface, type=NODE, name=s_Set-37_CNS_, internal
s_Set-37, 1.
*Surface, type=NODE, name=s_Set-39_CNS_, internal
s_Set-39, 1.
*Surface, type=NODE, name=s_Set-44_CNS_, internal
s_Set-44, 1.
** Constraint: Constraint-1
*Coupling, constraint name=Constraint-1, ref node=_PickedSet52, surface=_PickedSet51_CNS_
*Distributing, weighting method=UNIFORM, coupling=STRUCTURAL
** Constraint: Constraint-2
*Coupling, constraint name=Constraint-2, ref node=_PickedSet54, surface=_PickedSet53_CNS_
*Distributing, weighting method=UNIFORM, coupling=STRUCTURAL
** Constraint: Constraint-3
*Coupling, constraint name=Constraint-3, ref node=_PickedSet56, surface=_PickedSet55_CNS_
*Distributing, weighting method=UNIFORM, coupling=STRUCTURAL
** Constraint: Constraint-4
*Coupling, constraint name=Constraint-4, ref node=_PickedSet58, surface=_PickedSet57_CNS_
*Distributing, weighting method=UNIFORM, coupling=STRUCTURAL
** Constraint: Constraint-5
*Coupling, constraint name=Constraint-5, ref node=_PickedSet60, surface=_PickedSet59_CNS_
*Distributing, weighting method=UNIFORM, coupling=STRUCTURAL
** Constraint: Constraint-6
*Coupling, constraint name=Constraint-6, ref node=m_Set-31, surface=s_Set-31_CNS_
*Distributing, weighting method=UNIFORM, coupling=STRUCTURAL
** Constraint: Constraint-8
*Coupling, constraint name=Constraint-8, ref node=m_Set-35, surface=s_Set-43_CNS_
*Distributing, weighting method=UNIFORM, coupling=STRUCTURAL
** Constraint: Constraint-9
*Coupling, constraint name=Constraint-9, ref node=m_Set-37, surface=s_Set-37_CNS_
*Distributing, weighting method=UNIFORM, coupling=STRUCTURAL
** Constraint: Constraint-10
*Coupling, constraint name=Constraint-10, ref node=m_Set-39, surface=s_Set-39_CNS_
*Distributing, weighting method=UNIFORM, coupling=STRUCTURAL
** Constraint: Constraint-11
*Coupling, constraint name=Constraint-11, ref node=m_Set-44, surface=s_Set-44_CNS_
*Distributing, weighting method=UNIFORM, coupling=STRUCTURAL
*End Assembly
** 
** MATERIALS
** 
*Material, name=CFRP
*Density
0.,
*Elastic, type=LAMINA
135000.,10000.,   0.3, 5000., 5000., 5000.
*Fail Stress
1250.,1000.,  45., 225.,  65.,   1.,   0.
*Material, name=GFRP
*Elastic, type=LAMINA
25000.,25000.,   0.2, 4000., 4000., 4000.
*Fail Stress
1000.,650., 30.,110., 40.,  1.,  0.
** ----------------------------------------------------------------
** 
** STEP: nlan
** 
*Step, name=nlan, nlgeom=YES, inc=300
*Static, riks
0.01, 1., 1e-15, 0.05, 1., 
** 
** BOUNDARY CONDITIONS
** 
** Name: BC-2 Type: Displacement/Rotation
*Boundary
Set-7, 1, 1
Set-7, 2, 2
Set-7, 3, 3
Set-7, 4, 4
Set-7, 5, 5
Set-7, 6, 6
** 
** LOADS
** 
** Name: L-100   Type: Concentrated force
*Cload
Set-46, 2, 93.0959
** Name: L-200   Type: Concentrated force
*Cload
Set-47, 2, 93.1193
** Name: L-300   Type: Concentrated force
*Cload
Set-48, 2, 93.1292
** Name: L-400   Type: Concentrated force
*Cload
Set-49, 2, 93.1044
** Name: L-500   Type: Concentrated force
*Cload
Set-50, 2, 93.0657
** Name: L-600   Type: Concentrated force
*Cload
Set-51, 2, 93.0086
** Name: L-700   Type: Concentrated force
*Cload
Set-52, 2, 92.9423
** Name: L-800   Type: Concentrated force
*Cload
Set-53, 2, 92.9128
** Name: L-900   Type: Concentrated force
*Cload
Set-54, 2, 92.9053
** Name: L-1000   Type: Concentrated force
*Cload
Set-55, 2, 92.9012
** 
** OUTPUT REQUESTS
** 
*Restart, write, frequency=0
** 
** FIELD OUTPUT: F-Output-2
** 
*Output, field
*Node Output
CF, RF, U
*Element Output, directions=YES
CFAILURE, EEQUT, LE, MVF, PE, PEEQ, PEMAG, S, SEQUT, TE, TEEQ, TEVOL
*Contact Output
CDISP, CSTRESS
** 
** FIELD OUTPUT: LEBottom
** 
*Node Output, nset=Part-1-1.LEBottom
U, 
** 
** FIELD OUTPUT: Disps, LETop
** 
*Node Output, nset=Part-1-1.LETop
U, 
** 
** FIELD OUTPUT: TEBottom
** 
*Node Output, nset=Part-1-1.TEBottom
U, 
** 
** FIELD OUTPUT: TETop
** 
*Node Output, nset=Part-1-1.TETop
U, 
** 
** HISTORY OUTPUT: H-Output-2
** 
*Output, history
*Node Output, nset=Set-43
UR3, 
** 
** HISTORY OUTPUT: H-Output-3
** 
*Node Output, nset=Set-46
UR3, 
** 
** HISTORY OUTPUT: H-Output-4
** 
*Node Output, nset=Set-47
UR3, 
** 
** HISTORY OUTPUT: H-Output-5
** 
*Node Output, nset=Set-48
UR3, 
** 
** HISTORY OUTPUT: H-Output-6
** 
*Node Output, nset=Set-49
UR3, 
** 
** HISTORY OUTPUT: H-Output-7
** 
*Node Output, nset=Set-50
UR3, 
** 
** HISTORY OUTPUT: H-Output-8
** 
*Node Output, nset=Set-51
UR3, 
** 
** HISTORY OUTPUT: H-Output-9
** 
*Node Output, nset=Set-52
UR3, 
** 
** HISTORY OUTPUT: H-Output-10
** 
*Node Output, nset=Set-53
UR3, 
** 
** HISTORY OUTPUT: H-Output-11
** 
*Node Output, nset=Set-54
UR3, 
** 
** HISTORY OUTPUT: H-Output-12
** 
*Node Output, nset=Set-55
UR3, 
** 
** HISTORY OUTPUT: H-Output-1
** 
*Output, history, variable=PRESELECT
*End Step
