 Abaqus/Standard 2021                  DATE 18-Jul-2022 TIME 11:18:17
 SUMMARY OF JOB INFORMATION:
 STEP  INC ATT SEVERE EQUIL TOTAL  TOTAL      STEP       INC OF       DOF    IF
               DISCON ITERS ITERS  TIME/    TIME/LPF    TIME/LPF    MONITOR RIKS
               ITERS               FREQ
   1     1   1     0     2     2             0.0100     0.01000               R
   1     2   1     0     2     2             0.0200     0.01000               R
   1     3   1     0     2     2             0.0350     0.01500               R
   1     4   1     0     2     2             0.0575     0.02250               R
   1     5   1     0     2     2             0.0913     0.03375               R
   1     6   1     0     2     2             0.141      0.05000               R
   1     7   1     0     2     2             0.191      0.05000               R
   1     8   1     0     2     2             0.241      0.05000               R
   1     9   1     0     2     2             0.291      0.04999               R
   1    10   1     0     2     2             0.341      0.04999               R
   1    11   1     0     2     2             0.391      0.04999               R
   1    12   1     0     2     2             0.441      0.04998               R
   1    13   1     0     3     3             0.491      0.04998               R
   1    14   1     0     3     3             0.541      0.04997               R
   1    15   1     0     4     4             0.591      0.04996               R
   1    16   1     0     3     3             0.641      0.04996               R
   1    17   1     0     6     6             0.691      0.04998               R
   1    18   1     0     4     4             0.741      0.04994               R
   1    19   1     0     4     4             0.791      0.04993               R
   1    20   1     0     4     4             0.841      0.04992               R
   1    21   1     0     5     5             0.890      0.04963               R
   1    22   1U    0     5     5             0.890      0.04908               R
   1    22   2     0     4     4             0.903      0.01230               R
   1    23   1     0     3     3             0.915      0.01229               R
   1    24   1     0     4     4             0.934      0.01846               R
   1    25   1U    0     5     5             0.934      0.02763               R
   1    25   2     0     3     3             0.944      0.01036               R
   1    26   1U    0     4     4             0.944      0.01590               R
   1    26   2     0     3     3             0.950      0.005823              R
   1    27   1     0     4     4             0.958      0.008737              R
   1    28   1U    0     7     7             0.958      0.01280               R
   1    28   2     0     4     4             0.963      0.004922              R
   1    29   1U    0     6     6             0.963      0.007414              R
   1    29   2     0     4     4             0.966      0.002775              R
   1    30   1     0     4     4             0.970      0.004133              R
   1    31   1U    0     5     5             0.970      0.005835              R
   1    31   2     0     4     4             0.973      0.002337              R
   1    32   1     0     4     4             0.976      0.003504              R
   1    33   1     0     4     4             0.981      0.005226              R
   1    34   1     0     4     4             0.989      0.007851              R
   1    35   1     0     4     4             1.00       0.01179               R
                          
 THE ANALYSIS HAS COMPLETED SUCCESSFULLY
