 Abaqus/Standard 2021                  DATE 18-Jul-2022 TIME 13:42:27
 SUMMARY OF JOB INFORMATION:
 STEP  INC ATT SEVERE EQUIL TOTAL  TOTAL      STEP       INC OF       DOF    IF
               DISCON ITERS ITERS  TIME/    TIME/LPF    TIME/LPF    MONITOR RIKS
               ITERS               FREQ
   1     1   1     0     2     2             0.0100     0.01000               R
   1     2   1     0     2     2             0.0200     0.01000               R
   1     3   1     0     2     2             0.0350     0.01500               R
   1     4   1     0     2     2             0.0575     0.02250               R
   1     5   1     0     3     3             0.0912     0.03375               R
   1     6   1     0     3     3             0.141      0.04999               R
   1     7   1     0     3     3             0.191      0.04997               R
   1     8   1     0     3     3             0.241      0.04995               R
   1     9   1     0     3     3             0.291      0.04993               R
   1    10   1     0     3     3             0.341      0.04989               R
   1    11   1     0     3     3             0.391      0.04985               R
   1    12   1     0     3     3             0.441      0.04980               R
   1    13   1     0     3     3             0.490      0.04974               R
   1    14   1U    0     6     6             0.490      0.04965               R
   1    14   2     0     3     3             0.503      0.01242               R
   1    15   1     0     3     3             0.521      0.01862               R
   1    16   1     0     4     4             0.549      0.02790               R
   1    17   1     0     3     3             0.591      0.04178               R
   1    18   1     0     3     3             0.640      0.04938               R
   1    19   1     0     3     3             0.690      0.04914               R
   1    20   1     0     3     3             0.738      0.04863               R
   1    21   1     0     3     3             0.785      0.04697               R
   1    22   1     0     4     4             0.828      0.04242               R
   1    23   1     0     3     3             0.866      0.03800               R
   1    24   1     0     3     3             0.902      0.03590               R
   1    25   1     0     3     3             0.936      0.03471               R
   1    26   1     0     3     3             0.970      0.03383               R
   1    27   1     0     3     3             1.00       0.03309               R
                          
 THE ANALYSIS HAS COMPLETED SUCCESSFULLY
