*Heading
** Job name: threequarter Model name: threequarterbuckle
** Generated by: Abaqus/CAE 2021
*Preprint, echo=NO, model=NO, history=NO, contact=NO
**
** PARTS
**
*Part, name=Part-1
*End Part
**  
**
** ASSEMBLY
**
*Assembly, name=Assembly
**  
*Instance, name=Part-1-1, part=Part-1
*Node
      1,          50.,           0.,         500.
      2,          50.,          50.,         500.
      3,          50.,          50.,         600.
      4,          50.,           0.,         600.
      5,           0.,          50.,         500.
      6,          50.,          50.,         400.
      7,           0.,          50.,         400.
      8,          50.,          50.,         700.
      9,          50.,           0.,         700.
     10,           0.,          50.,         600.
     11,           0.,           0.,         700.
     12,          50.,           0.,         750.
     13,          50.,           0.,         800.
     14,           0.,           0.,         800.
     15,           0.,          50.,         700.
     16,           0.,           0.,         600.
     17,          50.,          50.,         750.
     18,           0.,           0.,         100.
     19,           0.,          50.,         100.
     20,           0.,          50.,           0.
** ... 13552 like lines cut
*Element, type=S4R
  1,    1,   48, 1597,  121
  2,   48,   49, 1598, 1597
  3,   49,   50, 1599, 1598
  4,   50,   51, 1600, 1599
  5,   51,   52, 1601, 1600
  6,   52,   53, 1602, 1601
  7,   53,   54, 1603, 1602
  8,   54,   55, 1604, 1603
  9,   55,   56, 1605, 1604
 10,   56,   57, 1606, 1605
 11,   57,   58, 1607, 1606
 12,   58,   59, 1608, 1607
 13,   59,    2,   60, 1608
 14,  121, 1597, 1609,  120
 15, 1597, 1598, 1610, 1609
 16, 1598, 1599, 1611, 1610
 17, 1599, 1600, 1612, 1611
 18, 1600, 1601, 1613, 1612
 19, 1601, 1602, 1614, 1613
 20, 1602, 1603, 1615, 1614
** ... 13500 like lines cut
*Node
  13573,   6.28000021,          25.,        1000.
*Nset, nset=Part-1-1-RefPt_, internal
13573, 
*Nset, nset=Set-1
     1,     2,     3,     4,     6,     8,     9,    12,    13,    17,    22,    23,    25,    26,    27,    28
    29,    30,    40,    41,    43,    44,    45,    47,    48,    49,    50,    51,    52,    53,    54,    55
    56,    57,    58,    59,    60,    61,    62,    63,    64,    65,    66,    67,    68,    69,    70,    71
    72,    73,    74,    75,    76,    77,    78,    79,    80,    81,    82,    83,    84,    85,    86,    87
    88,    89,    90,    91,    92,    93,    94,    95,    96,    97,    98,    99,   100,   101,   102,   103
   104,   105,   106,   107,   108,   109,   110,   111,   112,   113,   114,   115,   116,   117,   118,   119
   120,   121,   134,   135,   136,   137,   138,   139,   140,   141,   142,   143,   144,   145,   146,   147
   148,   149,   150,   151,   152,   153,   154,   155,   156,   157,   158,   196,   197,   198,   199,   200
   201,   202,   203,   204,   205,   206,   207,   208,   209,   210,   211,   212,   213,   214,   215,   216
   217,   218,   219,   220,   221,   222,   223,   224,   225,   226,   227,   228,   229,   230,   231,   232
   233,   234,   235,   236,   237,   238,   239,   240,   241,   242,   243,   244,   245,   246,   247,   248
   249,   250,   251,   252,   253,   254,   255,   256,   257,   307,   308,   309,   310,   311,   312,   313
   314,   315,   316,   317,   318,   319,   320,   321,   322,   323,   324,   325,   326,   327,   328,   329
   330,   442,   443,   444,   445,   446,   447,   448,   449,   450,   451,   452,   453,   454,   455,   456
   457,   458,   459,   460,   461,   462,   463,   464,   465,   564,   565,   566,   567,   568,   569,   570
   571,   572,   573,   574,   575,   576,   577,   578,   579,   580,   581,   582,   583,   584,   585,   586
   587,   588,   626,   627,   628,   629,   630,   631,   632,   633,   634,   635,   636,   637,   638,   639
   640,   641,   642,   643,   644,   645,   646,   647,   648,   649,   650,   651,   652,   653,   654,   655
   656,   657,   658,   659,   660,   661,   662,   663,   664,   665,   666,   667,   668,   669,   670,   671
   672,   673,   674,   687,   688,   689,   690,   691,   692,   693,   694,   695,   696,   697,   698,   699
** ... 209 like lines cut
*Elset, elset=Set-1
     1,     2,     3,     4,     5,     6,     7,     8,     9,    10,    11,    12,    13,    14,    15,    16
    17,    18,    19,    20,    21,    22,    23,    24,    25,    26,    27,    28,    29,    30,    31,    32
    33,    34,    35,    36,    37,    38,    39,    40,    41,    42,    43,    44,    45,    46,    47,    48
    49,    50,    51,    52,    53,    54,    55,    56,    57,    58,    59,    60,    61,    62,    63,    64
    65,    66,    67,    68,    69,    70,    71,    72,    73,    74,    75,    76,    77,    78,    79,    80
    81,    82,    83,    84,    85,    86,    87,    88,    89,    90,    91,    92,    93,    94,    95,    96
    97,    98,    99,   100,   101,   102,   103,   104,   105,   106,   107,   108,   109,   110,   111,   112
   113,   114,   115,   116,   117,   118,   119,   120,   121,   122,   123,   124,   125,   126,   127,   128
   129,   130,   131,   132,   133,   134,   135,   136,   137,   138,   139,   140,   141,   142,   143,   144
   145,   146,   147,   148,   149,   150,   151,   152,   153,   154,   155,   156,   157,   158,   159,   160
   161,   162,   163,   164,   165,   166,   167,   168,   169,   170,   171,   172,   173,   174,   175,   176
   177,   178,   179,   180,   181,   182,   183,   184,   185,   186,   187,   188,   189,   190,   191,   192
   193,   194,   195,   196,   197,   198,   199,   200,   201,   202,   203,   204,   205,   206,   207,   208
   209,   210,   211,   212,   213,   214,   215,   216,   217,   218,   219,   220,   221,   222,   223,   224
   225,   226,   227,   228,   229,   230,   231,   232,   233,   234,   235,   236,   237,   238,   239,   240
   241,   242,   243,   244,   245,   246,   247,   248,   249,   250,   251,   252,   253,   254,   255,   256
   257,   258,   259,   260,   261,   262,   263,   264,   265,   266,   267,   268,   269,   270,   271,   272
   273,   274,   275,   276,   277,   278,   279,   280,   281,   282,   283,   284,   285,   286,   287,   288
   289,   290,   291,   292,   293,   294,   295,   296,   297,   298,   299,   300,   301,   302,   303,   304
   305,   306,   307,   308,   309,   310,   311,   312,   313,   314,   315,   316,   317,   318,   319,   320
** ... 192 like lines cut
*Nset, nset=Set-2
     1,     2,     3,     4,     5,     6,     7,     8,     9,    10,    11,    12,    13,    14,    15,    16
    17,    18,    19,    20,    21,    22,    23,    24,    25,    26,    27,    28,    29,    30,    31,    32
    33,    34,    35,    36,    37,    38,    39,    40,    41,    42,    43,    44,    45,    46,    47,    60
    61,    62,    63,    64,    65,    66,    67,    68,    69,    70,    71,    72,    73,    74,    75,    76
    77,    78,    79,    80,    81,    82,    83,    84,    97,    98,    99,   100,   101,   102,   103,   104
   105,   106,   107,   108,   109,   110,   111,   112,   113,   114,   115,   116,   117,   118,   119,   120
   121,   122,   123,   124,   125,   126,   127,   128,   129,   130,   131,   132,   133,   134,   135,   136
   137,   138,   139,   140,   141,   142,   143,   144,   145,   146,   147,   148,   149,   150,   151,   152
   153,   154,   155,   156,   157,   158,   159,   160,   161,   162,   163,   164,   165,   166,   167,   168
   169,   170,   171,   172,   173,   174,   175,   176,   177,   178,   179,   180,   181,   182,   183,   184
   185,   186,   187,   188,   189,   190,   191,   192,   193,   194,   195,   196,   197,   198,   199,   200
   201,   202,   203,   204,   205,   206,   207,   208,   209,   210,   211,   212,   213,   214,   215,   216
   217,   218,   219,   220,   233,   234,   235,   236,   237,   238,   239,   240,   241,   242,   243,   244
   245,   246,   247,   248,   249,   250,   251,   252,   253,   254,   255,   256,   257,   258,   259,   260
   261,   262,   263,   264,   265,   266,   267,   268,   269,   270,   271,   272,   273,   274,   275,   276
   277,   278,   279,   280,   281,   282,   283,   284,   285,   286,   287,   288,   289,   290,   291,   292
   293,   294,   295,   296,   297,   298,   299,   300,   301,   302,   303,   304,   305,   306,   307,   308
   309,   310,   311,   312,   313,   314,   315,   316,   317,   318,   319,   320,   321,   322,   323,   324
   325,   326,   327,   328,   329,   330,   331,   332,   333,   334,   335,   336,   337,   338,   339,   340
   341,   342,   343,   344,   345,   346,   347,   348,   349,   350,   351,   352,   353,   354,   355,   356
** ... 437 like lines cut
*Elset, elset=Set-2
   339,   340,   341,   342,   343,   344,   345,   346,   347,   348,   349,   350,   351,   352,   353,   354
   355,   356,   357,   358,   359,   360,   361,   362,   363,   364,   365,   366,   367,   368,   369,   370
   371,   372,   373,   374,   375,   376,   377,   378,   379,   380,   381,   382,   383,   384,   385,   386
   387,   388,   389,   390,   391,   392,   393,   394,   395,   396,   397,   398,   399,   400,   401,   402
   403,   404,   405,   406,   407,   408,   409,   410,   411,   412,   413,   414,   415,   416,   417,   418
   419,   420,   421,   422,   423,   424,   425,   426,   427,   428,   429,   430,   431,   432,   433,   434
   435,   436,   437,   438,   439,   440,   441,   442,   443,   444,   445,   446,   447,   448,   449,   450
   451,   452,   453,   454,   455,   456,   457,   458,   459,   460,   461,   462,   463,   464,   465,   466
   467,   468,   469,   470,   471,   472,   473,   474,   475,   476,   477,   478,   479,   480,   481,   482
   483,   484,   485,   486,   487,   488,   489,   490,   491,   492,   493,   494,   495,   496,   497,   498
   499,   500,   501,   502,   503,   504,   505,   506,   507,   508,   509,   510,   511,   512,   513,   514
   515,   516,   517,   518,   519,   520,   521,   522,   523,   524,   525,   526,   527,   528,   529,   530
   531,   532,   533,   534,   535,   536,   537,   538,   539,   540,   541,   542,   543,   544,   545,   546
   547,   548,   549,   550,   551,   552,   553,   554,   555,   556,   557,   558,   559,   560,   561,   562
   563,   564,   565,   566,   567,   568,   569,   570,   571,   572,   573,   574,   575,   576,   577,   578
   579,   580,   581,   582,   583,   584,   585,   586,   587,   588,   589,   590,   591,   592,   593,   594
   595,   596,   597,   598,   599,   600,   601,   602,   603,   604,   605,   606,   607,   608,   609,   610
   611,   612,   613,   614,   615,   616,   617,   618,   619,   620,   621,   622,   623,   624,   625,   626
   627,   628,   629,   630,   631,   632,   633,   634,   635,   636,   637,   638,   639,   640,   641,   642
   643,   644,   645,   646,   647,   648,   649,   650,   651,   652,   653,   654,   655,   656,   657,   658
** ... 403 like lines cut
*Nset, nset=Set-3
     5,     7,    10,    11,    14,    15,    16,    18,    19,    20,    21,    24,    31,    32,    33,    34
    35,    36,    37,    38,    39,    42,    46,   171,   172,   173,   174,   175,   176,   177,   178,   179
   180,   181,   182,   183,   184,   185,   186,   187,   188,   189,   190,   191,   192,   193,   194,   195
   258,   259,   260,   261,   262,   263,   264,   265,   266,   267,   268,   269,   270,   271,   272,   273
   274,   275,   276,   277,   278,   279,   280,   281,   282,   343,   344,   345,   346,   347,   348,   349
   350,   351,   352,   353,   354,   355,   356,   357,   358,   359,   360,   361,   362,   363,   364,   365
   366,   367,   368,   369,   370,   371,   372,   373,   374,   375,   376,   377,   378,   379,   380,   381
   382,   383,   384,   385,   386,   387,   388,   389,   390,   391,   392,   393,   394,   395,   396,   397
   398,   399,   400,   401,   402,   403,   404,   405,   406,   407,   408,   409,   410,   411,   412,   413
   414,   415,   416,   417,   418,   419,   420,   421,   422,   423,   424,   425,   426,   427,   428,   429
   430,   431,   432,   433,   434,   435,   436,   437,   438,   439,   440,   441,   478,   479,   480,   481
   482,   483,   484,   485,   486,   487,   488,   489,   490,   491,   492,   493,   494,   495,   496,   497
   498,   499,   500,   501,   502,   503,   504,   505,   506,   507,   508,   509,   510,   511,   512,   513
   514,   515,   516,   517,   518,   519,   520,   521,   522,   523,   524,   525,   526,   527,   528,   529
   530,   531,   532,   533,   534,   535,   536,   537,   538,   539,   540,   541,   542,   543,   544,   545
   546,   547,   548,   549,   550,   551,   601,   602,   603,   604,   605,   606,   607,   608,   609,   610
   611,   612,   613,   614,   615,   616,   617,   618,   619,   620,   621,   622,   623,   624,   625,   810
   811,   812,   813,   814,   815,   816,   817,   818,   819,   820,   821,   822,   823,   824,   825,   826
   827,   828,   829,   830,   831,   832,   833,   834,   872,   873,   874,   875,   876,   877,   878,   879
   880,   881,   882,   883,   884,   885,   886,   887,   888,   889,   890,   891,   892,   893,   894,   895
** ... 209 like lines cut
*Elset, elset=Set-3
  1691,  1692,  1693,  1694,  1695,  1696,  1697,  1698,  1699,  1700,  1701,  1702,  1703,  1704,  1705,  1706
  1707,  1708,  1709,  1710,  1711,  1712,  1713,  1714,  1715,  1716,  1717,  1718,  1719,  1720,  1721,  1722
  1723,  1724,  1725,  1726,  1727,  1728,  1729,  1730,  1731,  1732,  1733,  1734,  1735,  1736,  1737,  1738
  1739,  1740,  1741,  1742,  1743,  1744,  1745,  1746,  1747,  1748,  1749,  1750,  1751,  1752,  1753,  1754
  1755,  1756,  1757,  1758,  1759,  1760,  1761,  1762,  1763,  1764,  1765,  1766,  1767,  1768,  1769,  1770
  1771,  1772,  1773,  1774,  1775,  1776,  1777,  1778,  1779,  1780,  1781,  1782,  1783,  1784,  1785,  1786
  1787,  1788,  1789,  1790,  1791,  1792,  1793,  1794,  1795,  1796,  1797,  1798,  1799,  1800,  1801,  1802
  1803,  1804,  1805,  1806,  1807,  1808,  1809,  1810,  1811,  1812,  1813,  1814,  1815,  1816,  1817,  1818
  1819,  1820,  1821,  1822,  1823,  1824,  1825,  1826,  1827,  1828,  1829,  1830,  1831,  1832,  1833,  1834
  1835,  1836,  1837,  1838,  1839,  1840,  1841,  1842,  1843,  1844,  1845,  1846,  1847,  1848,  1849,  1850
  1851,  1852,  1853,  1854,  1855,  1856,  1857,  1858,  1859,  1860,  1861,  1862,  1863,  1864,  1865,  1866
  1867,  1868,  1869,  1870,  1871,  1872,  1873,  1874,  1875,  1876,  1877,  1878,  1879,  1880,  1881,  1882
  1883,  1884,  1885,  1886,  1887,  1888,  1889,  1890,  1891,  1892,  1893,  1894,  1895,  1896,  1897,  1898
  1899,  1900,  1901,  1902,  1903,  1904,  1905,  1906,  1907,  1908,  1909,  1910,  1911,  1912,  1913,  1914
  1915,  1916,  1917,  1918,  1919,  1920,  1921,  1922,  1923,  1924,  1925,  1926,  1927,  1928,  1929,  1930
  1931,  1932,  1933,  1934,  1935,  1936,  1937,  1938,  1939,  1940,  1941,  1942,  1943,  1944,  1945,  1946
  1947,  1948,  1949,  1950,  1951,  1952,  1953,  1954,  1955,  1956,  1957,  1958,  1959,  1960,  1961,  1962
  1963,  1964,  1965,  1966,  1967,  1968,  1969,  1970,  1971,  1972,  1973,  1974,  1975,  1976,  1977,  1978
  1979,  1980,  1981,  1982,  1983,  1984,  1985,  1986,  1987,  1988,  1989,  1990,  1991,  1992,  1993,  1994
  1995,  1996,  1997,  1998,  1999,  2000,  2001,  2002,  2003,  2004,  2005,  2006,  2007,  2008,  2009,  2010
** ... 192 like lines cut
*Nset, nset=Set-4
    12,    13,    17,    40,    41,    43,    44,    47,   319,   320,   321,   322,   323,   324,   325,   326
   327,   328,   329,   330,   454,   455,   456,   457,   458,   459,   460,   461,   462,   463,   464,   465
  1130,  1131,  1132,  1133,  1134,  1135,  1136,  1137,  1138,  1139,  1140,  1141,  1142,  1143,  1144,  1145
  1146,  1147,  1148,  1149,  1150,  1151,  1152,  1153,  1154,  1204,  1205,  1206,  1207,  1208,  1209,  1210
  1211,  1212,  1213,  1214,  1215,  1216,  1217,  1218,  1219,  1220,  1221,  1222,  1223,  1224,  1225,  1226
  1227,  1228,  1241,  1242,  1243,  1244,  1245,  1246,  1247,  1248,  1249,  1250,  1251,  1252,  1253,  1254
  1255,  1256,  1257,  1258,  1259,  1260,  1261,  1262,  1263,  1264,  1265,  1266,  1267,  1268,  1269,  1270
  1271,  1272,  1273,  1274,  1275,  1276,  1277,  1278,  1279,  1280,  1281,  1282,  1283,  1284,  1285,  1286
  1287,  1288,  1289,  1511,  1512,  1513,  1514,  1515,  1516,  1517,  1518,  1519,  1520,  1521,  1522,  1523
  1524,  1525,  1526,  1527,  1528,  1529,  1530,  1531,  1532,  1533,  1534,  1535,  1536,  1537,  1538,  1539
  1540,  1541,  1542,  1543,  1544,  1545,  1546,  1547,  1585,  1586,  1587,  1588,  1589,  1590,  1591,  1592
  1593,  1594,  1595,  1596,  7741,  7742,  7743,  7744,  7745,  7746,  7747,  7748,  7749,  7750,  7751,  7752
  7753,  7754,  7755,  7756,  7757,  7758,  7759,  7760,  7761,  7762,  7763,  7764,  7765,  7766,  7767,  7768
  7769,  7770,  7771,  7772,  7773,  7774,  7775,  7776,  7777,  7778,  7779,  7780,  7781,  7782,  7783,  7784
  7785,  7786,  7787,  7788,  7789,  7790,  7791,  7792,  7793,  7794,  7795,  7796,  7797,  7798,  7799,  7800
  7801,  7802,  7803,  7804,  7805,  7806,  7807,  7808,  7809,  7810,  7811,  7812,  7813,  7814,  7815,  7816
  7817,  7818,  7819,  7820,  7821,  7822,  7823,  7824,  7825,  7826,  7827,  7828,  7829,  7830,  7831,  7832
  7833,  7834,  7835,  7836,  7837,  7838,  7839,  7840,  7841,  7842,  7843,  7844,  7845,  7846,  7847,  7848
  7849,  7850,  7851,  7852,  7853,  7854,  7855,  7856,  7857,  7858,  7859,  7860,  7861,  7862,  7863,  7864
  7865,  7866,  7867,  7868,  7869,  7870,  7871,  7872,  7873,  7874,  7875,  7876,  7877,  7878,  7879,  7880
** ... 38 like lines cut
*Elset, elset=Set-4
  6930,  6931,  6932,  6933,  6934,  6935,  6936,  6937,  6938,  6939,  6940,  6941,  6942,  6943,  6944,  6945
  6946,  6947,  6948,  6949,  6950,  6951,  6952,  6953,  6954,  6955,  6956,  6957,  6958,  6959,  6960,  6961
  6962,  6963,  6964,  6965,  6966,  6967,  6968,  6969,  6970,  6971,  6972,  6973,  6974,  6975,  6976,  6977
  6978,  6979,  6980,  6981,  6982,  6983,  6984,  6985,  6986,  6987,  6988,  6989,  6990,  6991,  6992,  6993
  6994,  6995,  6996,  6997,  6998,  6999,  7000,  7001,  7002,  7003,  7004,  7005,  7006,  7007,  7008,  7009
  7010,  7011,  7012,  7013,  7014,  7015,  7016,  7017,  7018,  7019,  7020,  7021,  7022,  7023,  7024,  7025
  7026,  7027,  7028,  7029,  7030,  7031,  7032,  7033,  7034,  7035,  7036,  7037,  7038,  7039,  7040,  7041
  7042,  7043,  7044,  7045,  7046,  7047,  7048,  7049,  7050,  7051,  7052,  7053,  7054,  7055,  7056,  7057
  7058,  7059,  7060,  7061,  7062,  7063,  7064,  7065,  7066,  7067,  7068,  7069,  7070,  7071,  7072,  7073
  7074,  7075,  7076,  7077,  7078,  7079,  7080,  7081,  7082,  7083,  7084,  7085,  7086,  7087,  7088,  7089
  7090,  7091,  7092,  7093,  7094,  7095,  7096,  7097,  7098,  7099,  7100,  7101,  7102,  7103,  7104,  7105
  7106,  7107,  7108,  7109,  7110,  7111,  7112,  7113,  7114,  7115,  7116,  7117,  7118,  7119,  7120,  7121
  7122,  7123,  7124,  7125,  7126,  7127,  7128,  7129,  7130,  7131,  7132,  7133,  7134,  7135,  7136,  7137
  7138,  7139,  7140,  7141,  7142,  7143,  7144,  7145,  7146,  7147,  7148,  7149,  7150,  7151,  7152,  7153
  7154,  7155,  7156,  7157,  7158,  7159,  7160,  7161,  7162,  7163,  7164,  7165,  7166,  7167,  7168,  7169
  7170,  7171,  7172,  7173,  7174,  7175,  7176,  7177,  7178,  7179,  7180,  7181,  7182,  7183,  7184,  7185
  7186,  7187,  7188,  7189,  7190,  7191,  7192,  7193,  7194,  7195,  7196,  7197,  7198,  7199,  7200,  7201
  7202,  7203,  7204,  7205,  7206,  7207,  7208,  7209,  7210,  7211,  7212,  7213,  7214,  7215,  7216,  7217
  7218,  7219,  7220,  7221,  7222,  7223,  7224,  7225,  7226,  7227,  7228,  7229,  7230,  7231,  7232,  7233
  7234,  7235,  7236,  7237,  7238,  7239,  7240,  7241,  7242,  7243,  7244,  7245,  7246,  7247,  7248,  7249
** ... 33 like lines cut
*Nset, nset=Set-5
     1,     2,     3,     4,     6,     8,     9,    12,    17,    22,    23,    25,    26,    27,    28,    29
    30,    45,    48,    49,    50,    51,    52,    53,    54,    55,    56,    57,    58,    59,    60,    61
    62,    63,    64,    65,    66,    67,    68,    69,    70,    71,    72,    73,    74,    75,    76,    77
    78,    79,    80,    81,    82,    83,    84,    85,    86,    87,    88,    89,    90,    91,    92,    93
    94,    95,    96,    97,    98,    99,   100,   101,   102,   103,   104,   105,   106,   107,   108,   109
   110,   111,   112,   113,   114,   115,   116,   117,   118,   119,   120,   121,   134,   135,   136,   137
   138,   139,   140,   141,   142,   143,   144,   145,   146,   147,   148,   149,   150,   151,   152,   153
   154,   155,   156,   157,   158,   196,   197,   198,   199,   200,   201,   202,   203,   204,   205,   206
   207,   208,   209,   210,   211,   212,   213,   214,   215,   216,   217,   218,   219,   220,   221,   222
   223,   224,   225,   226,   227,   228,   229,   230,   231,   232,   233,   234,   235,   236,   237,   238
   239,   240,   241,   242,   243,   244,   245,   246,   247,   248,   249,   250,   251,   252,   253,   254
   255,   256,   257,   307,   308,   309,   310,   311,   312,   313,   314,   315,   316,   317,   318,   442
   443,   444,   445,   446,   447,   448,   449,   450,   451,   452,   453,   454,   455,   456,   457,   458
   459,   460,   461,   462,   463,   464,   465,   564,   565,   566,   567,   568,   569,   570,   571,   572
   573,   574,   575,   576,   577,   578,   579,   580,   581,   582,   583,   584,   585,   586,   587,   588
   626,   627,   628,   629,   630,   631,   632,   633,   634,   635,   636,   637,   638,   639,   640,   641
   642,   643,   644,   645,   646,   647,   648,   649,   650,   651,   652,   653,   654,   655,   656,   657
   658,   659,   660,   661,   662,   663,   664,   665,   666,   667,   668,   669,   670,   671,   672,   673
   674,   687,   688,   689,   690,   691,   692,   693,   694,   695,   696,   697,   698,   699,   700,   701
   702,   703,   704,   705,   706,   707,   708,   709,   710,   711,   724,   725,   726,   727,   728,   729
** ... 152 like lines cut
*Elset, elset=Set-5
     1,     2,     3,     4,     5,     6,     7,     8,     9,    10,    11,    12,    13,    14,    15,    16
    17,    18,    19,    20,    21,    22,    23,    24,    25,    26,    27,    28,    29,    30,    31,    32
    33,    34,    35,    36,    37,    38,    39,    40,    41,    42,    43,    44,    45,    46,    47,    48
    49,    50,    51,    52,    53,    54,    55,    56,    57,    58,    59,    60,    61,    62,    63,    64
    65,    66,    67,    68,    69,    70,    71,    72,    73,    74,    75,    76,    77,    78,    79,    80
    81,    82,    83,    84,    85,    86,    87,    88,    89,    90,    91,    92,    93,    94,    95,    96
    97,    98,    99,   100,   101,   102,   103,   104,   105,   106,   107,   108,   109,   110,   111,   112
   113,   114,   115,   116,   117,   118,   119,   120,   121,   122,   123,   124,   125,   126,   127,   128
   129,   130,   131,   132,   133,   134,   135,   136,   137,   138,   139,   140,   141,   142,   143,   144
   145,   146,   147,   148,   149,   150,   151,   152,   153,   154,   155,   156,   157,   158,   159,   160
   161,   162,   163,   164,   165,   166,   167,   168,   169,   170,   171,   172,   173,   174,   175,   176
   177,   178,   179,   180,   181,   182,   183,   184,   185,   186,   187,   188,   189,   190,   191,   192
   193,   194,   195,   196,   197,   198,   199,   200,   201,   202,   203,   204,   205,   206,   207,   208
   209,   210,   211,   212,   213,   214,   215,   216,   217,   218,   219,   220,   221,   222,   223,   224
   225,   226,   227,   228,   229,   230,   231,   232,   233,   234,   235,   236,   237,   238,   239,   240
   241,   242,   243,   244,   245,   246,   247,   248,   249,   250,   251,   252,   253,   254,   255,   256
   257,   258,   259,   260,   261,   262,   263,   264,   265,   266,   267,   268,   269,   270,   271,   272
   273,   274,   275,   276,   277,   278,   279,   280,   281,   282,   283,   284,   285,   286,   287,   288
   289,   290,   291,   292,   293,   294,   295,   296,   297,   298,   299,   300,   301,   302,   303,   304
   305,   306,   307,   308,   309,   310,   311,   312,   313,   314,   315,   316,   317,   318,   319,   320
** ... 139 like lines cut
*Nset, nset=Force
    1,    2,    3,    4,    5,    6,    7,    8,    9,   10,   11,   12,   13,   14,   15,   16
   17,   18,   19,   20,   21,   22,   23,   24,   25,   26,   27,   28,   29,   30,   31,   32
   33,   34,   35,   36,   37,   38,   39,   40,   41,   42,   43,   44,   45,   46,   47,   60
   61,   62,   63,   64,   65,   66,   67,   68,   69,   70,   71,   72,   73,   74,   75,   76
   77,   78,   79,   80,   81,   82,   83,   84,   97,   98,   99,  100,  101,  102,  103,  104
  105,  106,  107,  108,  109,  110,  111,  112,  113,  114,  115,  116,  117,  118,  119,  120
  121,  134,  135,  136,  137,  138,  139,  140,  141,  142,  143,  144,  145,  146,  147,  148
  149,  150,  151,  152,  153,  154,  155,  156,  157,  158,  171,  172,  173,  174,  175,  176
  177,  178,  179,  180,  181,  182,  183,  184,  185,  186,  187,  188,  189,  190,  191,  192
  193,  194,  195,  196,  197,  198,  199,  200,  201,  202,  203,  204,  205,  206,  207,  208
  209,  210,  211,  212,  213,  214,  215,  216,  217,  218,  219,  220,  233,  234,  235,  236
  237,  238,  239,  240,  241,  242,  243,  244,  245,  246,  247,  248,  249,  250,  251,  252
  253,  254,  255,  256,  257,  258,  259,  260,  261,  262,  263,  264,  265,  266,  267,  268
  269,  270,  271,  272,  273,  274,  275,  276,  277,  278,  279,  280,  281,  282,  307,  308
  309,  310,  311,  312,  313,  314,  315,  316,  317,  318,  319,  320,  321,  322,  323,  324
  325,  326,  327,  328,  329,  330,  343,  344,  345,  346,  347,  348,  349,  350,  351,  352
  353,  354,  355,  356,  357,  358,  359,  360,  361,  362,  363,  364,  365,  366,  367,  380
  381,  382,  383,  384,  385,  386,  387,  388,  389,  390,  391,  392,  393,  394,  395,  396
  397,  398,  399,  400,  401,  402,  403,  404,  417,  418,  419,  420,  421,  422,  423,  424
  425,  426,  427,  428,  429,  430,  431,  432,  433,  434,  435,  436,  437,  438,  439,  440
** ... 46 like lines cut
*Elset, elset=Force
     1,    13,    14,    26,    27,    39,    40,    52,    53,    65,    66,    78,    79,    91,    92,   104
   105,   117,   118,   130,   131,   143,   144,   156,   157,   169,   170,   182,   183,   195,   196,   208
   209,   221,   222,   234,   235,   247,   248,   260,   261,   273,   274,   286,   287,   299,   300,   312
   313,   325,   326,   338,   339,   351,   352,   364,   365,   377,   378,   390,   391,   403,   404,   416
   417,   429,   430,   442,   443,   455,   456,   468,   469,   481,   482,   494,   495,   507,   508,   520
   521,   533,   534,   546,   547,   559,   560,   572,   573,   585,   586,   598,   599,   611,   612,   624
   625,   637,   638,   650,   651,   663,   664,   676,   677,   689,   690,   702,   703,   715,   716,   728
   729,   741,   742,   754,   755,   767,   768,   780,   781,   793,   794,   806,   807,   819,   820,   832
   833,   845,   846,   858,   859,   871,   872,   884,   885,   897,   898,   910,   911,   923,   924,   936
   937,   949,   950,   962,   963,   975,   976,   988,   989,  1001,  1002,  1014,  1015,  1027,  1028,  1040
  1041,  1053,  1054,  1066,  1067,  1079,  1080,  1092,  1093,  1105,  1106,  1118,  1119,  1131,  1132,  1144
  1145,  1157,  1158,  1170,  1171,  1183,  1184,  1196,  1197,  1209,  1210,  1222,  1223,  1235,  1236,  1248
  1249,  1261,  1262,  1274,  1275,  1287,  1288,  1300,  1301,  1313,  1314,  1326,  1327,  1339,  1340,  1352
  1353,  1365,  1366,  1378,  1379,  1391,  1392,  1404,  1405,  1417,  1418,  1430,  1431,  1443,  1444,  1456
  1457,  1469,  1470,  1482,  1483,  1495,  1496,  1508,  1509,  1521,  1522,  1534,  1535,  1547,  1548,  1560
  1561,  1573,  1574,  1586,  1587,  1599,  1600,  1612,  1613,  1625,  1626,  1638,  1639,  1651,  1652,  1664
  1665,  1677,  1678,  1690,  1691,  1703,  1704,  1716,  1717,  1729,  1730,  1742,  1743,  1755,  1756,  1768
  1769,  1781,  1782,  1794,  1795,  1807,  1808,  1820,  1821,  1833,  1834,  1846,  1847,  1859,  1860,  1872
  1873,  1885,  1886,  1898,  1899,  1911,  1912,  1924,  1925,  1937,  1938,  1950,  1951,  1963,  1964,  1976
  1977,  1989,  1990,  2002,  2003,  2015,  2016,  2028,  2029,  2041,  2042,  2054,  2055,  2067,  2068,  2080
** ... 110 like lines cut
*Nset, nset=LETop
  4,  7, 19, 20, 32, 33, 36, 39, 42, 46
*Nset, nset=LEBottom
  1, 14, 18, 21, 24, 31, 35, 37, 38
*Nset, nset=TETop
  6, 10, 17, 25, 26, 27, 29, 40, 41, 47
*Nset, nset=TEBottom
 12, 13, 16, 22, 23, 28, 30, 43, 44, 45
** Section: shear web
*Shell Section, elset=Set-5, composite, symmetric
0.125, 3, CFRP, 90.
0.02, 3, GFRP, 65.
0.125, 3, CFRP, 115.
0.02, 3, GFRP, 115.
0.125, 3, CFRP, 115.
** Section: Flange
*Shell Section, elset=Set-2, composite, symmetric
0.125, 3, CFRP, 90.
0.125, 3, CFRP, 90.
0.125, 3, CFRP, 90.
0.125, 3, CFRP, 90.
0.125, 3, CFRP, 90.
0.125, 3, CFRP, 90.
0.02, 3, GFRP, 65.
0.125, 3, CFRP, 115.
0.02, 3, GFRP, 115.
0.125, 3, CFRP, 115.
** Section: shear web
*Shell Section, elset=Set-3, composite, symmetric
0.125, 3, CFRP, 90.
0.02, 3, GFRP, 65.
0.125, 3, CFRP, 115.
0.02, 3, GFRP, 115.
0.125, 3, CFRP, 115.
** Section: buckle
*Shell Section, elset=Set-4, composite, layup=Buckle, symmetric
0.02, 3, GFRP, 115.
0.125, 3, CFRP, 115.
*End Instance
**  
*Node
      1,          25.,          25.,         200.
*Node
      2,   6.26000023,          25.,         400.
*Node
      3,   6.28000021,          25.,         600.
*Node
      4,   6.28000021,          25.,         800.
*Node
      5,          25.,          25.,         100.
*Node
      6,   6.28000021,          25.,         300.
*Node
      7,   6.28000021,          25.,         500.
*Node
      8,   6.28000021,          25.,         700.
*Node
      9,   6.28000021,          25.,         900.
*Nset, nset=Set-1, instance=Part-1-1
   38,   39,   44,   47, 1081, 1082, 1083, 1084, 1085, 1086, 1087, 1088, 1089, 1090, 1091, 1092
 1229, 1230, 1231, 1232, 1233, 1234, 1235, 1236, 1237, 1238, 1239, 1240, 1536, 1537, 1538, 1539
 1540, 1541, 1542, 1543, 1544, 1545, 1546, 1547, 1548, 1549, 1550, 1551, 1552, 1553, 1554, 1555
 1556, 1557, 1558, 1559
*Elset, elset=Set-1, instance=Part-1-1
  6241,  6242,  6243,  6244,  6245,  6246,  6247,  6248,  6249,  6250,  6251,  6252,  6253,  6917,  6918,  6919
  6920,  6921,  6922,  6923,  6924,  6925,  6926,  6927,  6928,  6929, 11142, 11143, 11144, 11145, 11146, 11147
 11148, 11149, 11150, 11151, 11152, 11153, 11154, 11480, 11481, 11482, 11483, 11484, 11485, 11486, 11487, 11488
 11489, 11490, 11491, 11492
*Nset, nset=Set-6, instance=Part-1-1
   20,   21,   27,   45,  515,  516,  517,  518,  519,  520,  521,  522,  523,  524,  525,  526
  712,  713,  714,  715,  716,  717,  718,  719,  720,  721,  722,  723, 1377, 1378, 1379, 1380
 1381, 1382, 1383, 1384, 1385, 1386, 1387, 1388, 1463, 1464, 1465, 1466, 1467, 1468, 1469, 1470
 1471, 1472, 1473, 1474
*Elset, elset=Set-6, instance=Part-1-1
 2861, 2862, 2863, 2864, 2865, 2866, 2867, 2868, 2869, 2870, 2871, 2872, 2873, 3875, 3876, 3877
 3878, 3879, 3880, 3881, 3882, 3883, 3884, 3885, 3886, 3887, 8607, 8608, 8609, 8610, 8611, 8612
 8613, 8614, 8615, 8616, 8617, 8618, 8619, 9790, 9791, 9792, 9793, 9794, 9795, 9796, 9797, 9798
 9799, 9800, 9801, 9802
*Nset, nset=Set-7, instance=Part-1-1
   20,   21,   27,   45,  515,  516,  517,  518,  519,  520,  521,  522,  523,  524,  525,  526
  712,  713,  714,  715,  716,  717,  718,  719,  720,  721,  722,  723, 1377, 1378, 1379, 1380
 1381, 1382, 1383, 1384, 1385, 1386, 1387, 1388, 1463, 1464, 1465, 1466, 1467, 1468, 1469, 1470
 1471, 1472, 1473, 1474
*Elset, elset=Set-7, instance=Part-1-1
 2861, 2862, 2863, 2864, 2865, 2866, 2867, 2868, 2869, 2870, 2871, 2872, 2873, 3875, 3876, 3877
 3878, 3879, 3880, 3881, 3882, 3883, 3884, 3885, 3886, 3887, 8607, 8608, 8609, 8610, 8611, 8612
 8613, 8614, 8615, 8616, 8617, 8618, 8619, 9790, 9791, 9792, 9793, 9794, 9795, 9796, 9797, 9798
 9799, 9800, 9801, 9802
*Nset, nset=Set-14, instance=Part-1-1
 13573,
*Nset, nset=Set-15, instance=Part-1-1
 13573,
*Nset, nset=Set-16, instance=Part-1-1
   20,   21,   27,   45,  515,  516,  517,  518,  519,  520,  521,  522,  523,  524,  525,  526
 1377, 1378, 1379, 1380, 1381, 1382, 1383, 1384, 1385, 1386, 1387, 1388, 1463, 1464, 1465, 1466
 1467, 1468, 1469, 1470, 1471, 1472, 1473, 1474
*Elset, elset=Set-16, instance=Part-1-1
 2861, 2862, 2863, 2864, 2865, 2866, 2867, 2868, 2869, 2870, 2871, 2872, 2873, 8607, 8608, 8609
 8610, 8611, 8612, 8613, 8614, 8615, 8616, 8617, 8618, 8619, 9790, 9791, 9792, 9793, 9794, 9795
 9796, 9797, 9798, 9799, 9800, 9801, 9802
*Nset, nset=Set-41, instance=Part-1-1
 13573,
*Nset, nset=Set-41, generate
 1,  9,  1
*Nset, nset=Set-42, instance=Part-1-1
   20,   21,   27,   45,  515,  516,  517,  518,  519,  520,  521,  522,  523,  524,  525,  526
  712,  713,  714,  715,  716,  717,  718,  719,  720,  721,  722,  723, 1377, 1378, 1379, 1380
 1381, 1382, 1383, 1384, 1385, 1386, 1387, 1388, 1463, 1464, 1465, 1466, 1467, 1468, 1469, 1470
 1471, 1472, 1473, 1474
*Elset, elset=Set-42, instance=Part-1-1
 2861, 2862, 2863, 2864, 2865, 2866, 2867, 2868, 2869, 2870, 2871, 2872, 2873, 3875, 3876, 3877
 3878, 3879, 3880, 3881, 3882, 3883, 3884, 3885, 3886, 3887, 8607, 8608, 8609, 8610, 8611, 8612
 8613, 8614, 8615, 8616, 8617, 8618, 8619, 9790, 9791, 9792, 9793, 9794, 9795, 9796, 9797, 9798
 9799, 9800, 9801, 9802
*Nset, nset=Set-43, instance=Part-1-1
 13573,
*Nset, nset=Set-43, generate
 1,  9,  1
*Nset, nset=Set-50
 5,
*Nset, nset=Set-51
 1,
*Nset, nset=Set-52
 6,
*Nset, nset=Set-53
 2,
*Nset, nset=Set-54
 7,
*Nset, nset=Set-55
 3,
*Nset, nset=Set-56
 8,
*Nset, nset=Set-57
 4,
*Nset, nset=Set-58
 9,
*Nset, nset=Set-59, instance=Part-1-1
 13573,
*Nset, nset=m_Set-12, instance=Part-1-1
 13573,
*Nset, nset=m_Set-31
 5,
*Nset, nset=m_Set-33
 6,
*Nset, nset=m_Set-35
 7,
*Nset, nset=m_Set-37
 8,
*Nset, nset=m_Set-39
 9,
*Nset, nset=m_Set-44
 6,
*Nset, nset=m_Set-46
 6,
*Nset, nset=m_Set-48
 8,
*Nset, nset=s_Set-12, instance=Part-1-1
   38,   39,   44,   47, 1081, 1082, 1083, 1084, 1085, 1086, 1087, 1088, 1089, 1090, 1091, 1092
 1229, 1230, 1231, 1232, 1233, 1234, 1235, 1236, 1237, 1238, 1239, 1240, 1536, 1537, 1538, 1539
 1540, 1541, 1542, 1543, 1544, 1545, 1546, 1547, 1548, 1549, 1550, 1551, 1552, 1553, 1554, 1555
 1556, 1557, 1558, 1559
*Elset, elset=s_Set-12, instance=Part-1-1
  6241,  6242,  6243,  6244,  6245,  6246,  6247,  6248,  6249,  6250,  6251,  6252,  6253,  6917,  6918,  6919
  6920,  6921,  6922,  6923,  6924,  6925,  6926,  6927,  6928,  6929, 11142, 11143, 11144, 11145, 11146, 11147
 11148, 11149, 11150, 11151, 11152, 11153, 11154, 11480, 11481, 11482, 11483, 11484, 11485, 11486, 11487, 11488
 11489, 11490, 11491, 11492
*Nset, nset=s_Set-31, instance=Part-1-1
 18, 19, 22, 25
*Nset, nset=s_Set-33, instance=Part-1-1
 28, 29, 31, 32
*Nset, nset=s_Set-35, instance=Part-1-1
  1, 12, 17, 46
*Nset, nset=s_Set-39, instance=Part-1-1
 36, 37, 40, 43
*Nset, nset=s_Set-43, instance=Part-1-1
  1,  5, 34
*Nset, nset=s_Set-46, instance=Part-1-1
 28, 29, 31, 32
*Nset, nset=s_Set-48, instance=Part-1-1
  8,  9, 11, 15
*Nset, nset=_PickedSet51, internal, instance=Part-1-1
 23, 24, 26, 33
*Nset, nset=_PickedSet52, internal
 1,
*Nset, nset=_PickedSet53, internal, instance=Part-1-1
  6,  7, 30, 35
*Nset, nset=_PickedSet54, internal
 2,
*Nset, nset=_PickedSet55, internal, instance=Part-1-1, generate
  4,  16,   6
*Nset, nset=_PickedSet56, internal
 3,
*Nset, nset=_PickedSet57, internal, instance=Part-1-1
 13, 14, 41, 42
*Nset, nset=_PickedSet58, internal
 4,
*Nset, nset=_PickedSet59, internal, instance=Part-1-1
 38, 39, 44, 47
*Nset, nset=_PickedSet60, internal, instance=Part-1-1
 13573,
*Surface, type=NODE, name=_PickedSet51_CNS_, internal
_PickedSet51, 1.
*Surface, type=NODE, name=_PickedSet53_CNS_, internal
_PickedSet53, 1.
*Surface, type=NODE, name=_PickedSet55_CNS_, internal
_PickedSet55, 1.
*Surface, type=NODE, name=_PickedSet57_CNS_, internal
_PickedSet57, 1.
*Surface, type=NODE, name=_PickedSet59_CNS_, internal
_PickedSet59, 1.
*Surface, type=NODE, name=s_Set-31_CNS_, internal
s_Set-31, 1.
*Surface, type=NODE, name=s_Set-43_CNS_, internal
s_Set-43, 1.
*Surface, type=NODE, name=s_Set-39_CNS_, internal
s_Set-39, 1.
*Surface, type=NODE, name=s_Set-46_CNS_, internal
s_Set-46, 1.
*Surface, type=NODE, name=s_Set-48_CNS_, internal
s_Set-48, 1.
** Constraint: Constraint-1
*Coupling, constraint name=Constraint-1, ref node=_PickedSet52, surface=_PickedSet51_CNS_
*Distributing, weighting method=UNIFORM, coupling=STRUCTURAL
** Constraint: Constraint-2
*Coupling, constraint name=Constraint-2, ref node=_PickedSet54, surface=_PickedSet53_CNS_
*Distributing, weighting method=UNIFORM, coupling=STRUCTURAL
** Constraint: Constraint-3
*Coupling, constraint name=Constraint-3, ref node=_PickedSet56, surface=_PickedSet55_CNS_
*Distributing, weighting method=UNIFORM, coupling=STRUCTURAL
** Constraint: Constraint-4
*Coupling, constraint name=Constraint-4, ref node=_PickedSet58, surface=_PickedSet57_CNS_
*Distributing, weighting method=UNIFORM, coupling=STRUCTURAL
** Constraint: Constraint-5
*Coupling, constraint name=Constraint-5, ref node=_PickedSet60, surface=_PickedSet59_CNS_
*Distributing, weighting method=UNIFORM, coupling=STRUCTURAL
** Constraint: Constraint-6
*Coupling, constraint name=Constraint-6, ref node=m_Set-31, surface=s_Set-31_CNS_
*Distributing, weighting method=UNIFORM, coupling=STRUCTURAL
** Constraint: Constraint-8
*Coupling, constraint name=Constraint-8, ref node=m_Set-35, surface=s_Set-43_CNS_
*Distributing, weighting method=UNIFORM, coupling=STRUCTURAL
** Constraint: Constraint-10
*Coupling, constraint name=Constraint-10, ref node=m_Set-39, surface=s_Set-39_CNS_
*Distributing, weighting method=UNIFORM, coupling=STRUCTURAL
** Constraint: Constraint-12
*Coupling, constraint name=Constraint-12, ref node=m_Set-46, surface=s_Set-46_CNS_
*Distributing, weighting method=UNIFORM, coupling=STRUCTURAL
** Constraint: Constraint-13
*Coupling, constraint name=Constraint-13, ref node=m_Set-48, surface=s_Set-48_CNS_
*Distributing, weighting method=UNIFORM, coupling=STRUCTURAL
*End Assembly
** 
** MATERIALS
** 
*Material, name=CFRP
*Density
0.,
*Elastic, type=LAMINA
135000.,10000.,   0.3, 5000., 5000., 5000.
*Fail Stress
1250.,1000.,  45., 225.,  65.,   1.,   0.
*Material, name=GFRP
*Elastic, type=LAMINA
25000.,25000.,   0.2, 4000., 4000., 4000.
*Fail Stress
1000.,650., 30.,110., 40.,  1.,  0.
** ----------------------------------------------------------------
** 
** STEP: nlan
** 
*Step, name=nlan, nlgeom=YES, inc=300
*Static, riks
0.01, 1., 1e-15, 0.05, 1., 
** 
** BOUNDARY CONDITIONS
** 
** Name: BC-2 Type: Displacement/Rotation
*Boundary
Set-7, 1, 1
Set-7, 2, 2
Set-7, 3, 3
Set-7, 4, 4
Set-7, 5, 5
Set-7, 6, 6
** 
** LOADS
** 
** Name: L-100   Type: Concentrated force
*Cload
Set-50, 2, 293.43
** Name: L-200   Type: Concentrated force
*Cload
Set-51, 2, 292.886
** Name: L-300   Type: Concentrated force
*Cload
Set-52, 2, 292.42
** Name: L-400   Type: Concentrated force
*Cload
Set-53, 2, 291.951
** Name: L-500   Type: Concentrated force
*Cload
Set-54, 2, 291.569
** Name: L-600   Type: Concentrated force
*Cload
Set-55, 2, 291.246
** Name: L-700   Type: Concentrated force
*Cload
Set-56, 2, 290.965
** Name: L-800   Type: Concentrated force
*Cload
Set-57, 2, 290.523
** Name: L-900   Type: Concentrated force
*Cload
Set-58, 2, 289.725
** Name: L-1000   Type: Concentrated force
*Cload
Set-59, 2, 289.157
** 
** OUTPUT REQUESTS
** 
*Restart, write, frequency=0
** 
** FIELD OUTPUT: F-Output-2
** 
*Output, field
*Node Output
CF, RF, U
*Element Output, directions=YES
CFAILURE, EEQUT, LE, MVF, PE, PEEQ, PEMAG, S, SEQUT, TE, TEEQ, TEVOL
*Contact Output
CDISP, CSTRESS
** 
** FIELD OUTPUT: LEBottom
** 
*Node Output, nset=Part-1-1.LEBottom
U, 
** 
** FIELD OUTPUT: Disps, LETop
** 
*Node Output, nset=Part-1-1.LETop
U, 
** 
** FIELD OUTPUT: TEBottom
** 
*Node Output, nset=Part-1-1.TEBottom
U, 
** 
** FIELD OUTPUT: TETop
** 
*Node Output, nset=Part-1-1.TETop
U, 
** 
** HISTORY OUTPUT: H-Output-2
** 
*Output, history
*Node Output, nset=Set-50
UR, UR3
** 
** HISTORY OUTPUT: H-Output-3
** 
*Node Output, nset=Set-51
UR3, 
** 
** HISTORY OUTPUT: H-Output-4
** 
*Node Output, nset=Set-52
UR3, 
** 
** HISTORY OUTPUT: H-Output-5
** 
*Node Output, nset=Set-53
UR3, 
** 
** HISTORY OUTPUT: H-Output-6
** 
*Node Output, nset=Set-54
UR3, 
** 
** HISTORY OUTPUT: H-Output-7
** 
*Node Output, nset=Set-55
UR3, 
** 
** HISTORY OUTPUT: H-Output-8
** 
*Node Output, nset=Set-56
UR3, 
** 
** HISTORY OUTPUT: H-Output-9
** 
*Node Output, nset=Set-57
UR3, 
** 
** HISTORY OUTPUT: H-Output-10
** 
*Node Output, nset=Set-58
UR3, 
** 
** HISTORY OUTPUT: H-Output-11
** 
*Node Output, nset=Set-59
UR3, 
** 
** HISTORY OUTPUT: H-Output-1
** 
*Output, history, variable=PRESELECT
*End Step
