1

   Abaqus 2021                                  Date 18-Jul-2022   Time 13:42:15
   For use by UNIVERSITY OF BRISTOL under license from Dassault Systemes or its subsidiary.

                                                                                 
                                                                                 
 STEP    1     INCREMENT     1     STEP TIME    0.00    


                        S T E P       1     S T A T I C   A N A L Y S I S


                                                                                          

     AUTOMATIC LOAD CONTROL WITH -
          A SUGGESTED INITIAL INCREMENT IN ARC LENGTH           1.000E-02
          AND A TOTAL ARC LENGTH SCALE FACTOR OF                 1.00    
          THE MINIMUM ARC LENGTH INCREMENT ALLOWED IS           1.000E-15
          THE MAXIMUM ARC LENGTH INCREMENT ALLOWED IS           5.000E-02

     LINEAR EQUATION SOLVER TYPE         DIRECT SPARSE

     MODIFIED RIKS METHOD IS USED - AMPLITUDE REFERENCES ARE IGNORED

     THE STEP ENDS WHEN LOAD PROPORTIONALITY FACTOR EXCEEDS    1.00    

 CONVERGENCE TOLERANCE PARAMETERS FOR FORCE    
     CRITERION FOR RESIDUAL FORCE     FOR A NONLINEAR PROBLEM          5.000E-03
     CRITERION FOR DISP.    CORRECTION IN A NONLINEAR PROBLEM          1.000E-02
     INITIAL VALUE OF TIME AVERAGE FORCE                               1.000E-02
     AVERAGE FORCE     IS TIME AVERAGE FORCE    
     ALTERNATE CRIT. FOR RESIDUAL FORCE     FOR A NONLINEAR PROBLEM    2.000E-02
     CRITERION FOR ZERO FORCE     RELATIVE TO TIME AVRG. FORCE         1.000E-05
     CRITERION FOR RESIDUAL FORCE     WHEN THERE IS ZERO FLUX          1.000E-05
     CRITERION FOR DISP.    CORRECTION WHEN THERE IS ZERO FLUX         1.000E-03
     CRITERION FOR RESIDUAL FORCE     FOR A LINEAR INCREMENT           1.000E-08
     FIELD CONVERSION RATIO                                             1.00    
     CRITERION FOR ZERO FORCE     REL. TO TIME AVRG. MAX. FORCE        1.000E-05
     CRITERION FOR ZERO DISP.    RELATIVE TO CHARACTERISTIC LENGTH     1.000E-08

 CONVERGENCE TOLERANCE PARAMETERS FOR MOMENT   
     CRITERION FOR RESIDUAL MOMENT    FOR A NONLINEAR PROBLEM          5.000E-03
     CRITERION FOR ROTATION CORRECTION IN A NONLINEAR PROBLEM          1.000E-02
     INITIAL VALUE OF TIME AVERAGE MOMENT                              1.000E-02
     AVERAGE MOMENT    IS TIME AVERAGE MOMENT   
     ALTERNATE CRIT. FOR RESIDUAL MOMENT    FOR A NONLINEAR PROBLEM    2.000E-02
     CRITERION FOR ZERO MOMENT    RELATIVE TO TIME AVRG. MOMENT        1.000E-05
     CRITERION FOR RESIDUAL MOMENT    WHEN THERE IS ZERO FLUX          1.000E-05
     CRITERION FOR ROTATION CORRECTION WHEN THERE IS ZERO FLUX         1.000E-03
     CRITERION FOR RESIDUAL MOMENT    FOR A LINEAR INCREMENT           1.000E-08
     FIELD CONVERSION RATIO                                             1.00    
     CRITERION FOR ZERO MOMENT    REL. TO TIME AVRG. MAX. MOMENT       1.000E-05

     VOLUMETRIC STRAIN COMPATIBILITY TOLERANCE FOR HYBRID SOLIDS       1.000E-05
     AXIAL STRAIN COMPATIBILITY TOLERANCE FOR HYBRID BEAMS             1.000E-05
     TRANS. SHEAR STRAIN COMPATIBILITY TOLERANCE FOR HYBRID BEAMS      1.000E-05
     SOFT CONTACT CONSTRAINT COMPATIBILITY TOLERANCE FOR P>P0          5.000E-03
     SOFT CONTACT CONSTRAINT COMPATIBILITY TOLERANCE FOR P=0.0         0.100    
     CONTACT FORCE ERROR TOLERANCE FOR CONVERT SDI=YES                 1.00    
     DISPLACEMENT COMPATIBILITY TOLERANCE FOR DCOUP ELEMENTS           1.000E-05
     ROTATION COMPATIBILITY TOLERANCE FOR DCOUP ELEMENTS               1.000E-05

 EQUILIBRIUM WILL BE CHECKED FOR SEVERE DISCONTINUITY ITERATIONS

 TIME INCREMENTATION CONTROL PARAMETERS:
     FIRST EQUILIBRIUM ITERATION FOR CONSECUTIVE DIVERGENCE CHECK              4
     EQUILIBRIUM ITERATION AT WHICH LOG. CONVERGENCE RATE CHECK BEGINS         8
     EQUILIBRIUM ITERATION AFTER WHICH ALTERNATE RESIDUAL IS USED              9
     MAXIMUM EQUILIBRIUM ITERATIONS ALLOWED                                   16
     EQUILIBRIUM ITERATION COUNT FOR CUT-BACK IN NEXT INCREMENT               10
     MAXIMUM EQUILIB. ITERS IN TWO INCREMENTS FOR TIME INCREMENT INCREASE      4
     MAXIMUM ITERATIONS FOR SEVERE DISCONTINUITIES                            50
     MAXIMUM ATTEMPTS ALLOWED IN AN INCREMENT                                  5
     MAXIMUM DISCON. ITERS IN TWO INCREMENTS FOR TIME INCREMENT INCREASE      50
     MAXIMUM CONTACT AUGMENTATIONS FOR *SURFACE BEHAVIOR,AUGMENTED LAGRANGE   50
     CUT-BACK FACTOR AFTER DIVERGENCE                                 0.2500    
     CUT-BACK FACTOR FOR TOO SLOW CONVERGENCE                         0.5000    
     CUT-BACK FACTOR AFTER TOO MANY EQUILIBRIUM ITERATIONS            0.7500    
     CUT-BACK FACTOR AFTER TOO MANY SEVERE DISCONTINUITY ITERATIONS   0.2500    
     CUT-BACK FACTOR AFTER PROBLEMS IN ELEMENT ASSEMBLY               0.2500    
     INCREASE FACTOR AFTER TWO INCREMENTS THAT CONVERGE QUICKLY        1.500    
     MAX. TIME INCREMENT INCREASE FACTOR ALLOWED                       1.500    
     MAX. TIME INCREMENT INCREASE FACTOR ALLOWED (DYNAMICS)            1.250    
     MAX. TIME INCREMENT INCREASE FACTOR ALLOWED (DIFFUSION)           2.000    
     MINIMUM TIME INCREMENT RATIO FOR EXTRAPOLATION TO OCCUR          0.1000    
     MAX. RATIO OF TIME INCREMENT TO STABILITY LIMIT                   1.000    
     FRACTION OF STABILITY LIMIT FOR NEW TIME INCREMENT               0.9500    
     TIME INCREMENT INCREASE FACTOR BEFORE A TIME POINT                1.000    
     GLOBAL STABILIZATION CONTROL IS NOT USED

          PRINT OF INCREMENT NUMBER, TIME, ETC., EVERY    1  INCREMENTS

     THE MAXIMUM NUMBER OF INCREMENTS IN THIS STEP IS                     300

          LARGE DISPLACEMENT THEORY WILL BE USED

     LINEAR EXTRAPOLATION WILL BE USED

     CHARACTERISTIC ELEMENT LENGTH      3.85    

     DETAILS REGARDING ACTUAL SOLUTION WAVEFRONT REQUESTED

     DETAILED OUTPUT OF DIAGNOSTICS TO DATABASE REQUESTED

     PRINT OF INCREMENT NUMBER, TIME, ETC., TO THE MESSAGE FILE EVERY     1  INCREMENTS

     COLLECTING MODEL CONSTRAINT INFORMATION FOR OVERCONSTRAINT CHECKS

     COLLECTING STEP CONSTRAINT INFORMATION FOR OVERCONSTRAINT CHECKS


  INCREMENT     1 STARTS. ATTEMPT NUMBER  1

  NUMBER OF EQUATIONS =     81552     NUMBER OF RHS =    2
  NUMBER OF FLOATING PT. OPERATIONS =  6.90E+09

     CHECK POINT   START OF SOLVER    

     CHECK POINT  END OF SOLVER       

       ELAPSED USER TIME (SEC)      =   1.0000    
       ELAPSED SYSTEM TIME (SEC)    =  0.10000    
       ELAPSED TOTAL CPU TIME (SEC) =   1.1000    
       ELAPSED WALLCLOCK TIME (SEC) =          1

               CONVERGENCE CHECKS FOR EQUILIBRIUM ITERATION     1


 AVERAGE FORCE                      0.839       TIME AVG. FORCE       0.839    
 LARGEST RESIDUAL FORCE            -8.610E-02   AT NODE       1229   DOF  3
   INSTANCE: PART-1-1                                                                        
 LARGEST INCREMENT OF DISP.         0.310       AT NODE         39   DOF  2
   INSTANCE: PART-1-1                                                                        
 LARGEST CORRECTION TO DISP.        0.310       AT NODE         39   DOF  2
   INSTANCE: PART-1-1                                                                        
          FORCE     EQUILIBRIUM NOT ACHIEVED WITHIN TOLERANCE.

 AVERAGE MOMENT                     1.787E-02   TIME AVG. MOMENT      1.787E-02
 LARGEST RESIDUAL MOMENT            1.154E-02   AT NODE          4   DOF  5
   INSTANCE:                                                                                 
 LARGEST INCREMENT OF ROTATION     -4.237E-04   AT NODE         44   DOF  4
   INSTANCE: PART-1-1                                                                        
 LARGEST CORRECTION TO ROTATION    -4.237E-04   AT NODE         44   DOF  4
   INSTANCE: PART-1-1                                                                        
          MOMENT    EQUILIBRIUM NOT ACHIEVED WITHIN TOLERANCE.

 COMPATIBILITY ERRORS:
    TYPE                NUMBER EXCEEDING TOLERANCE  MAXIMUM ERROR        IN ELEMENT
 COUPLING DISPLACEMENT               0                1.163E-08                  3
   INSTANCE: {assembly node}                                                                 
 COUPLING ROTATION                   0               -3.873E-08                  9
   INSTANCE: {assembly node}                                                                 

  NUMBER OF EQUATIONS =     81552     NUMBER OF RHS =    2
  NUMBER OF FLOATING PT. OPERATIONS =  6.90E+09

     CHECK POINT   START OF SOLVER    

     CHECK POINT  END OF SOLVER       

       ELAPSED USER TIME (SEC)      =   1.1000    
       ELAPSED SYSTEM TIME (SEC)    =  0.10000    
       ELAPSED TOTAL CPU TIME (SEC) =   1.2000    
       ELAPSED WALLCLOCK TIME (SEC) =          2

               CONVERGENCE CHECKS FOR EQUILIBRIUM ITERATION     2


 AVERAGE FORCE                      0.838       TIME AVG. FORCE       0.838    
 LARGEST RESIDUAL FORCE            -3.872E-07   AT NODE        690   DOF  2
   INSTANCE: PART-1-1                                                                        
 LARGEST INCREMENT OF DISP.         0.310       AT NODE         39   DOF  2
   INSTANCE: PART-1-1                                                                        
 LARGEST CORRECTION TO DISP.       -5.364E-05   AT NODE         39   DOF  3
   INSTANCE: PART-1-1                                                                        
          THE FORCE     EQUILIBRIUM EQUATIONS HAVE CONVERGED

 AVERAGE MOMENT                     1.786E-02   TIME AVG. MOMENT      1.786E-02
 LARGEST RESIDUAL MOMENT            4.539E-06   AT NODE          4   DOF  4
   INSTANCE:                                                                                 
 LARGEST INCREMENT OF ROTATION     -4.237E-04   AT NODE         44   DOF  4
   INSTANCE: PART-1-1                                                                        
 LARGEST CORRECTION TO ROTATION     1.766E-06   AT NODE       4788   DOF  6
   INSTANCE: PART-1-1                                                                        
          THE MOMENT    EQUILIBRIUM EQUATIONS HAVE CONVERGED

 COMPATIBILITY ERRORS:
    TYPE                NUMBER EXCEEDING TOLERANCE  MAXIMUM ERROR        IN ELEMENT
 COUPLING DISPLACEMENT               0               -1.140E-15                  7
   INSTANCE: {assembly node}                                                                 
 COUPLING ROTATION                   0                7.785E-12                  9
   INSTANCE: {assembly node}                                                                 

 ITERATION SUMMARY FOR THE INCREMENT:   2 TOTAL ITERATIONS, OF WHICH
   0 ARE SEVERE DISCONTINUITY ITERATIONS AND  2 ARE EQUILIBRIUM ITERATIONS.


                                INCREMENT     1 SUMMARY


     CURRENT LOAD PROPORTIONALITY FACTOR         1.0000E-02
     TOTAL ARC LENGTH   1.000E-02, INCREMENT OF ARC LENGTH   1.000E-02


  INCREMENT     2 STARTS. ATTEMPT NUMBER  1

  NUMBER OF EQUATIONS =     81552     NUMBER OF RHS =    2
  NUMBER OF FLOATING PT. OPERATIONS =  6.90E+09

     CHECK POINT   START OF SOLVER    

     CHECK POINT  END OF SOLVER       

       ELAPSED USER TIME (SEC)      =   1.1000    
       ELAPSED SYSTEM TIME (SEC)    =   0.0000    
       ELAPSED TOTAL CPU TIME (SEC) =   1.1000    
       ELAPSED WALLCLOCK TIME (SEC) =          1

               CONVERGENCE CHECKS FOR EQUILIBRIUM ITERATION     1


 AVERAGE FORCE                       1.71       TIME AVG. FORCE        1.27    
 LARGEST RESIDUAL FORCE            -8.438E-02   AT NODE       1229   DOF  3
   INSTANCE: PART-1-1                                                                        
 LARGEST INCREMENT OF DISP.         0.310       AT NODE         39   DOF  2
   INSTANCE: PART-1-1                                                                        
 LARGEST CORRECTION TO DISP.        0.310       AT NODE         39   DOF  2
   INSTANCE: PART-1-1                                                                        
          FORCE     EQUILIBRIUM NOT ACHIEVED WITHIN TOLERANCE.

 AVERAGE MOMENT                     3.632E-02   TIME AVG. MOMENT      2.709E-02
 LARGEST RESIDUAL MOMENT            1.242E-02   AT NODE          3   DOF  4
   INSTANCE:                                                                                 
 LARGEST INCREMENT OF ROTATION     -4.237E-04   AT NODE         44   DOF  4
   INSTANCE: PART-1-1                                                                        
 LARGEST CORRECTION TO ROTATION    -4.237E-04   AT NODE         44   DOF  4
   INSTANCE: PART-1-1                                                                        
          MOMENT    EQUILIBRIUM NOT ACHIEVED WITHIN TOLERANCE.

 COMPATIBILITY ERRORS:
    TYPE                NUMBER EXCEEDING TOLERANCE  MAXIMUM ERROR        IN ELEMENT
 COUPLING DISPLACEMENT               0                1.141E-08                  3
   INSTANCE: {assembly node}                                                                 
 COUPLING ROTATION                   0               -3.794E-08                  9
   INSTANCE: {assembly node}                                                                 

  NUMBER OF EQUATIONS =     81552     NUMBER OF RHS =    2
  NUMBER OF FLOATING PT. OPERATIONS =  6.90E+09

     CHECK POINT   START OF SOLVER    

     CHECK POINT  END OF SOLVER       

       ELAPSED USER TIME (SEC)      =   1.0000    
       ELAPSED SYSTEM TIME (SEC)    =   0.0000    
       ELAPSED TOTAL CPU TIME (SEC) =   1.0000    
       ELAPSED WALLCLOCK TIME (SEC) =          1

               CONVERGENCE CHECKS FOR EQUILIBRIUM ITERATION     2


 AVERAGE FORCE                       1.70       TIME AVG. FORCE        1.27    
 LARGEST RESIDUAL FORCE            -3.849E-07   AT NODE        691   DOF  2
   INSTANCE: PART-1-1                                                                        
 LARGEST INCREMENT OF DISP.         0.310       AT NODE         39   DOF  2
   INSTANCE: PART-1-1                                                                        
 LARGEST CORRECTION TO DISP.       -5.258E-05   AT NODE         39   DOF  3
   INSTANCE: PART-1-1                                                                        
          THE FORCE     EQUILIBRIUM EQUATIONS HAVE CONVERGED

 AVERAGE MOMENT                     3.634E-02   TIME AVG. MOMENT      2.710E-02
 LARGEST RESIDUAL MOMENT            8.938E-06   AT NODE          4   DOF  4
   INSTANCE:                                                                                 
 LARGEST INCREMENT OF ROTATION     -4.237E-04   AT NODE         44   DOF  4
   INSTANCE: PART-1-1                                                                        
 LARGEST CORRECTION TO ROTATION     1.768E-06   AT NODE       4800   DOF  6
   INSTANCE: PART-1-1                                                                        
          THE MOMENT    EQUILIBRIUM EQUATIONS HAVE CONVERGED

 COMPATIBILITY ERRORS:
    TYPE                NUMBER EXCEEDING TOLERANCE  MAXIMUM ERROR        IN ELEMENT
 COUPLING DISPLACEMENT               0               -1.107E-15                  4
   INSTANCE: {assembly node}                                                                 
 COUPLING ROTATION                   0                7.626E-12                  9
   INSTANCE: {assembly node}                                                                 
          ARC LENGTH INCREMENT MAY NOW INCREASE TO    1.500E-02

 ITERATION SUMMARY FOR THE INCREMENT:   2 TOTAL ITERATIONS, OF WHICH
   0 ARE SEVERE DISCONTINUITY ITERATIONS AND  2 ARE EQUILIBRIUM ITERATIONS.


                                INCREMENT     2 SUMMARY


     CURRENT LOAD PROPORTIONALITY FACTOR         2.0000E-02
     TOTAL ARC LENGTH   2.000E-02, INCREMENT OF ARC LENGTH   1.000E-02


  INCREMENT     3 STARTS. ATTEMPT NUMBER  1

  NUMBER OF EQUATIONS =     81552     NUMBER OF RHS =    2
  NUMBER OF FLOATING PT. OPERATIONS =  6.90E+09

     CHECK POINT   START OF SOLVER    

     CHECK POINT  END OF SOLVER       

       ELAPSED USER TIME (SEC)      =   1.1000    
       ELAPSED SYSTEM TIME (SEC)    =   0.0000    
       ELAPSED TOTAL CPU TIME (SEC) =   1.1000    
       ELAPSED WALLCLOCK TIME (SEC) =          1

               CONVERGENCE CHECKS FOR EQUILIBRIUM ITERATION     1


 AVERAGE FORCE                       2.97       TIME AVG. FORCE        1.84    
 LARGEST RESIDUAL FORCE            -0.190       AT NODE       1229   DOF  3
   INSTANCE: PART-1-1                                                                        
 LARGEST INCREMENT OF DISP.         0.465       AT NODE         39   DOF  2
   INSTANCE: PART-1-1                                                                        
 LARGEST CORRECTION TO DISP.        0.465       AT NODE         39   DOF  2
   INSTANCE: PART-1-1                                                                        
          FORCE     EQUILIBRIUM NOT ACHIEVED WITHIN TOLERANCE.

 AVERAGE MOMENT                     6.348E-02   TIME AVG. MOMENT      3.923E-02
 LARGEST RESIDUAL MOMENT            2.904E-02   AT NODE          3   DOF  4
   INSTANCE:                                                                                 
 LARGEST INCREMENT OF ROTATION     -6.356E-04   AT NODE         44   DOF  4
   INSTANCE: PART-1-1                                                                        
 LARGEST CORRECTION TO ROTATION    -6.356E-04   AT NODE         44   DOF  4
   INSTANCE: PART-1-1                                                                        
          MOMENT    EQUILIBRIUM NOT ACHIEVED WITHIN TOLERANCE.

 COMPATIBILITY ERRORS:
    TYPE                NUMBER EXCEEDING TOLERANCE  MAXIMUM ERROR        IN ELEMENT
 COUPLING DISPLACEMENT               0                2.568E-08                  3
   INSTANCE: {assembly node}                                                                 
 COUPLING ROTATION                   0               -8.534E-08                  9
   INSTANCE: {assembly node}                                                                 

  NUMBER OF EQUATIONS =     81552     NUMBER OF RHS =    2
  NUMBER OF FLOATING PT. OPERATIONS =  6.90E+09

     CHECK POINT   START OF SOLVER    

     CHECK POINT  END OF SOLVER       

       ELAPSED USER TIME (SEC)      =   1.2000    
       ELAPSED SYSTEM TIME (SEC)    =   0.0000    
       ELAPSED TOTAL CPU TIME (SEC) =   1.2000    
       ELAPSED WALLCLOCK TIME (SEC) =          1

               CONVERGENCE CHECKS FOR EQUILIBRIUM ITERATION     2


 AVERAGE FORCE                       2.97       TIME AVG. FORCE        1.84    
 LARGEST RESIDUAL FORCE            -1.987E-06   AT NODE        690   DOF  2
   INSTANCE: PART-1-1                                                                        
 LARGEST INCREMENT OF DISP.         0.465       AT NODE         39   DOF  2
   INSTANCE: PART-1-1                                                                        
 LARGEST CORRECTION TO DISP.       -1.183E-04   AT NODE         39   DOF  3
   INSTANCE: PART-1-1                                                                        
          THE FORCE     EQUILIBRIUM EQUATIONS HAVE CONVERGED

 AVERAGE MOMENT                     6.352E-02   TIME AVG. MOMENT      3.924E-02
 LARGEST RESIDUAL MOMENT            3.521E-05   AT NODE          4   DOF  4
   INSTANCE:                                                                                 
 LARGEST INCREMENT OF ROTATION     -6.356E-04   AT NODE         44   DOF  4
   INSTANCE: PART-1-1                                                                        
 LARGEST CORRECTION TO ROTATION     4.031E-06   AT NODE       4800   DOF  6
   INSTANCE: PART-1-1                                                                        
          THE MOMENT    EQUILIBRIUM EQUATIONS HAVE CONVERGED

 COMPATIBILITY ERRORS:
    TYPE                NUMBER EXCEEDING TOLERANCE  MAXIMUM ERROR        IN ELEMENT
 COUPLING DISPLACEMENT               0               -5.318E-15                  4
   INSTANCE: {assembly node}                                                                 
 COUPLING ROTATION                   0                2.572E-11                  9
   INSTANCE: {assembly node}                                                                 
          ARC LENGTH INCREMENT MAY NOW INCREASE TO    2.250E-02

 ITERATION SUMMARY FOR THE INCREMENT:   2 TOTAL ITERATIONS, OF WHICH
   0 ARE SEVERE DISCONTINUITY ITERATIONS AND  2 ARE EQUILIBRIUM ITERATIONS.


                                INCREMENT     3 SUMMARY


     CURRENT LOAD PROPORTIONALITY FACTOR         3.5000E-02
     TOTAL ARC LENGTH   3.500E-02, INCREMENT OF ARC LENGTH   1.500E-02


  INCREMENT     4 STARTS. ATTEMPT NUMBER  1

  NUMBER OF EQUATIONS =     81552     NUMBER OF RHS =    2
  NUMBER OF FLOATING PT. OPERATIONS =  6.90E+09

     CHECK POINT   START OF SOLVER    

     CHECK POINT  END OF SOLVER       

       ELAPSED USER TIME (SEC)      =   1.1000    
       ELAPSED SYSTEM TIME (SEC)    =   0.0000    
       ELAPSED TOTAL CPU TIME (SEC) =   1.1000    
       ELAPSED WALLCLOCK TIME (SEC) =          2

               CONVERGENCE CHECKS FOR EQUILIBRIUM ITERATION     1


 AVERAGE FORCE                       4.88       TIME AVG. FORCE        2.60    
 LARGEST RESIDUAL FORCE            -0.427       AT NODE       1229   DOF  3
   INSTANCE: PART-1-1                                                                        
 LARGEST INCREMENT OF DISP.         0.698       AT NODE         39   DOF  2
   INSTANCE: PART-1-1                                                                        
 LARGEST CORRECTION TO DISP.        0.698       AT NODE         39   DOF  2
   INSTANCE: PART-1-1                                                                        
          FORCE     EQUILIBRIUM NOT ACHIEVED WITHIN TOLERANCE.

 AVERAGE MOMENT                     0.104       TIME AVG. MOMENT      5.550E-02
 LARGEST RESIDUAL MOMENT           -6.825E-02   AT NODE      13573   DOF  5
   INSTANCE: PART-1-1                                                                        
 LARGEST INCREMENT OF ROTATION     -9.534E-04   AT NODE         44   DOF  4
   INSTANCE: PART-1-1                                                                        
 LARGEST CORRECTION TO ROTATION    -9.534E-04   AT NODE         44   DOF  4
   INSTANCE: PART-1-1                                                                        
          MOMENT    EQUILIBRIUM NOT ACHIEVED WITHIN TOLERANCE.

 COMPATIBILITY ERRORS:
    TYPE                NUMBER EXCEEDING TOLERANCE  MAXIMUM ERROR        IN ELEMENT
 COUPLING DISPLACEMENT               0                5.781E-08                  3
   INSTANCE: {assembly node}                                                                 
 COUPLING ROTATION                   0               -1.919E-07                  9
   INSTANCE: {assembly node}                                                                 

  NUMBER OF EQUATIONS =     81552     NUMBER OF RHS =    2
  NUMBER OF FLOATING PT. OPERATIONS =  6.90E+09

     CHECK POINT   START OF SOLVER    

     CHECK POINT  END OF SOLVER       

       ELAPSED USER TIME (SEC)      =   1.1000    
       ELAPSED SYSTEM TIME (SEC)    =  0.10000    
       ELAPSED TOTAL CPU TIME (SEC) =   1.2000    
       ELAPSED WALLCLOCK TIME (SEC) =          2

               CONVERGENCE CHECKS FOR EQUILIBRIUM ITERATION     2


 AVERAGE FORCE                       4.87       TIME AVG. FORCE        2.60    
 LARGEST RESIDUAL FORCE            -1.037E-05   AT NODE        691   DOF  2
   INSTANCE: PART-1-1                                                                        
 LARGEST INCREMENT OF DISP.         0.698       AT NODE         39   DOF  2
   INSTANCE: PART-1-1                                                                        
 LARGEST CORRECTION TO DISP.       -2.661E-04   AT NODE         39   DOF  3
   INSTANCE: PART-1-1                                                                        
          THE FORCE     EQUILIBRIUM EQUATIONS HAVE CONVERGED

 AVERAGE MOMENT                     0.104       TIME AVG. MOMENT      5.554E-02
 LARGEST RESIDUAL MOMENT            1.302E-04   AT NODE          4   DOF  4
   INSTANCE:                                                                                 
 LARGEST INCREMENT OF ROTATION     -9.534E-04   AT NODE         44   DOF  4
   INSTANCE: PART-1-1                                                                        
 LARGEST CORRECTION TO ROTATION     9.255E-06   AT NODE       4800   DOF  6
   INSTANCE: PART-1-1                                                                        
          THE MOMENT    EQUILIBRIUM EQUATIONS HAVE CONVERGED

 COMPATIBILITY ERRORS:
    TYPE                NUMBER EXCEEDING TOLERANCE  MAXIMUM ERROR        IN ELEMENT
 COUPLING DISPLACEMENT               0               -2.762E-14                  4
   INSTANCE: {assembly node}                                                                 
 COUPLING ROTATION                   0                8.674E-11                  9
   INSTANCE: {assembly node}                                                                 
          ARC LENGTH INCREMENT MAY NOW INCREASE TO    3.375E-02

 ITERATION SUMMARY FOR THE INCREMENT:   2 TOTAL ITERATIONS, OF WHICH
   0 ARE SEVERE DISCONTINUITY ITERATIONS AND  2 ARE EQUILIBRIUM ITERATIONS.


                                INCREMENT     4 SUMMARY


     CURRENT LOAD PROPORTIONALITY FACTOR         5.7500E-02
     TOTAL ARC LENGTH   5.750E-02, INCREMENT OF ARC LENGTH   2.250E-02


  INCREMENT     5 STARTS. ATTEMPT NUMBER  1

  NUMBER OF EQUATIONS =     81552     NUMBER OF RHS =    2
  NUMBER OF FLOATING PT. OPERATIONS =  6.90E+09

     CHECK POINT   START OF SOLVER    

     CHECK POINT  END OF SOLVER       

       ELAPSED USER TIME (SEC)      =   1.1000    
       ELAPSED SYSTEM TIME (SEC)    =   0.0000    
       ELAPSED TOTAL CPU TIME (SEC) =   1.1000    
       ELAPSED WALLCLOCK TIME (SEC) =          1

               CONVERGENCE CHECKS FOR EQUILIBRIUM ITERATION     1


 AVERAGE FORCE                       7.73       TIME AVG. FORCE        3.62    
 LARGEST RESIDUAL FORCE            -0.961       AT NODE       1229   DOF  3
   INSTANCE: PART-1-1                                                                        
 LARGEST INCREMENT OF DISP.          1.05       AT NODE         39   DOF  2
   INSTANCE: PART-1-1                                                                        
 LARGEST CORRECTION TO DISP.         1.05       AT NODE         39   DOF  2
   INSTANCE: PART-1-1                                                                        
          FORCE     EQUILIBRIUM NOT ACHIEVED WITHIN TOLERANCE.

 AVERAGE MOMENT                     0.166       TIME AVG. MOMENT      7.763E-02
 LARGEST RESIDUAL MOMENT           -0.180       AT NODE      13573   DOF  5
   INSTANCE: PART-1-1                                                                        
 LARGEST INCREMENT OF ROTATION     -1.430E-03   AT NODE         44   DOF  4
   INSTANCE: PART-1-1                                                                        
 LARGEST CORRECTION TO ROTATION    -1.430E-03   AT NODE         44   DOF  4
   INSTANCE: PART-1-1                                                                        
          MOMENT    EQUILIBRIUM NOT ACHIEVED WITHIN TOLERANCE.

 COMPATIBILITY ERRORS:
    TYPE                NUMBER EXCEEDING TOLERANCE  MAXIMUM ERROR        IN ELEMENT
 COUPLING DISPLACEMENT               0                1.302E-07                  3
   INSTANCE: {assembly node}                                                                 
 COUPLING ROTATION                   0               -4.315E-07                  9
   INSTANCE: {assembly node}                                                                 

  NUMBER OF EQUATIONS =     81552     NUMBER OF RHS =    2
  NUMBER OF FLOATING PT. OPERATIONS =  6.90E+09

     CHECK POINT   START OF SOLVER    

     CHECK POINT  END OF SOLVER       

       ELAPSED USER TIME (SEC)      =   1.1000    
       ELAPSED SYSTEM TIME (SEC)    =   0.0000    
       ELAPSED TOTAL CPU TIME (SEC) =   1.1000    
       ELAPSED WALLCLOCK TIME (SEC) =          1

               CONVERGENCE CHECKS FOR EQUILIBRIUM ITERATION     2


 AVERAGE FORCE                       7.72       TIME AVG. FORCE        3.62    
 LARGEST RESIDUAL FORCE            -5.519E-05   AT NODE        691   DOF  2
   INSTANCE: PART-1-1                                                                        
 LARGEST INCREMENT OF DISP.          1.05       AT NODE         39   DOF  2
   INSTANCE: PART-1-1                                                                        
 LARGEST CORRECTION TO DISP.       -5.988E-04   AT NODE         39   DOF  3
   INSTANCE: PART-1-1                                                                        
          THE FORCE     EQUILIBRIUM EQUATIONS HAVE CONVERGED

 AVERAGE MOMENT                     0.166       TIME AVG. MOMENT      7.771E-02
 LARGEST RESIDUAL MOMENT            4.653E-04   AT NODE          4   DOF  4
   INSTANCE:                                                                                 
 LARGEST INCREMENT OF ROTATION     -1.430E-03   AT NODE         44   DOF  4
   INSTANCE: PART-1-1                                                                        
 LARGEST CORRECTION TO ROTATION     2.154E-05   AT NODE       4812   DOF  6
   INSTANCE: PART-1-1                                                                        
          MOMENT    EQUILIBRIUM NOT ACHIEVED WITHIN TOLERANCE.

 COMPATIBILITY ERRORS:
    TYPE                NUMBER EXCEEDING TOLERANCE  MAXIMUM ERROR        IN ELEMENT
 COUPLING DISPLACEMENT               0               -1.399E-13                  4
   INSTANCE: {assembly node}                                                                 
 COUPLING ROTATION                   0                2.924E-10                  9
   INSTANCE: {assembly node}                                                                 

  NUMBER OF EQUATIONS =     81552     NUMBER OF RHS =    2
  NUMBER OF FLOATING PT. OPERATIONS =  6.90E+09

     CHECK POINT   START OF SOLVER    

     CHECK POINT  END OF SOLVER       

       ELAPSED USER TIME (SEC)      =   1.1000    
       ELAPSED SYSTEM TIME (SEC)    =   0.0000    
       ELAPSED TOTAL CPU TIME (SEC) =   1.1000    
       ELAPSED WALLCLOCK TIME (SEC) =          2

               CONVERGENCE CHECKS FOR EQUILIBRIUM ITERATION     3


 AVERAGE FORCE                       7.72       TIME AVG. FORCE        3.62    
 LARGEST RESIDUAL FORCE             9.271E-08   AT NODE       7726   DOF  3
   INSTANCE: PART-1-1                                                                        
 LARGEST INCREMENT OF DISP.          1.05       AT NODE         39   DOF  2
   INSTANCE: PART-1-1                                                                        
 LARGEST CORRECTION TO DISP.       -1.162E-06   AT NODE       1542   DOF  1
   INSTANCE: PART-1-1                                                                        
          THE FORCE     EQUILIBRIUM EQUATIONS HAVE CONVERGED

 AVERAGE MOMENT                     0.166       TIME AVG. MOMENT      7.771E-02
 LARGEST RESIDUAL MOMENT            2.350E-07   AT NODE      13573   DOF  4
   INSTANCE: PART-1-1                                                                        
 LARGEST INCREMENT OF ROTATION     -1.430E-03   AT NODE         44   DOF  4
   INSTANCE: PART-1-1                                                                        
 LARGEST CORRECTION TO ROTATION    -6.933E-08   AT NODE       1541   DOF  5
   INSTANCE: PART-1-1                                                                        
          THE MOMENT    EQUILIBRIUM EQUATIONS HAVE CONVERGED

 COMPATIBILITY ERRORS:
    TYPE                NUMBER EXCEEDING TOLERANCE  MAXIMUM ERROR        IN ELEMENT
 COUPLING DISPLACEMENT               0                4.092E-17                  7
   INSTANCE: {assembly node}                                                                 
 COUPLING ROTATION                   0                2.192E-13                  9
   INSTANCE: {assembly node}                                                                 
          ARC LENGTH INCREMENT MAY NOW INCREASE TO    5.000E-02

 ITERATION SUMMARY FOR THE INCREMENT:   3 TOTAL ITERATIONS, OF WHICH
   0 ARE SEVERE DISCONTINUITY ITERATIONS AND  3 ARE EQUILIBRIUM ITERATIONS.


                                INCREMENT     5 SUMMARY


     CURRENT LOAD PROPORTIONALITY FACTOR         9.1247E-02
     TOTAL ARC LENGTH   9.125E-02, INCREMENT OF ARC LENGTH   3.375E-02


  INCREMENT     6 STARTS. ATTEMPT NUMBER  1

  NUMBER OF EQUATIONS =     81552     NUMBER OF RHS =    2
  NUMBER OF FLOATING PT. OPERATIONS =  6.90E+09

     CHECK POINT   START OF SOLVER    

     CHECK POINT  END OF SOLVER       

       ELAPSED USER TIME (SEC)      =   1.1000    
       ELAPSED SYSTEM TIME (SEC)    =   0.0000    
       ELAPSED TOTAL CPU TIME (SEC) =   1.1000    
       ELAPSED WALLCLOCK TIME (SEC) =          2

               CONVERGENCE CHECKS FOR EQUILIBRIUM ITERATION     1


 AVERAGE FORCE                       12.0       TIME AVG. FORCE        5.01    
 LARGEST RESIDUAL FORCE             -2.11       AT NODE       1229   DOF  3
   INSTANCE: PART-1-1                                                                        
 LARGEST INCREMENT OF DISP.          1.55       AT NODE         39   DOF  2
   INSTANCE: PART-1-1                                                                        
 LARGEST CORRECTION TO DISP.         1.55       AT NODE         39   DOF  2
   INSTANCE: PART-1-1                                                                        
          FORCE     EQUILIBRIUM NOT ACHIEVED WITHIN TOLERANCE.

 AVERAGE MOMENT                     0.259       TIME AVG. MOMENT      0.108    
 LARGEST RESIDUAL MOMENT           -0.443       AT NODE      13573   DOF  5
   INSTANCE: PART-1-1                                                                        
 LARGEST INCREMENT OF ROTATION     -2.119E-03   AT NODE         44   DOF  4
   INSTANCE: PART-1-1                                                                        
 LARGEST CORRECTION TO ROTATION    -2.119E-03   AT NODE         44   DOF  4
   INSTANCE: PART-1-1                                                                        
          MOMENT    EQUILIBRIUM NOT ACHIEVED WITHIN TOLERANCE.

 COMPATIBILITY ERRORS:
    TYPE                NUMBER EXCEEDING TOLERANCE  MAXIMUM ERROR        IN ELEMENT
 COUPLING DISPLACEMENT               0                2.863E-07                  3
   INSTANCE: {assembly node}                                                                 
 COUPLING ROTATION                   0               -9.457E-07                  9
   INSTANCE: {assembly node}                                                                 

  NUMBER OF EQUATIONS =     81552     NUMBER OF RHS =    2
  NUMBER OF FLOATING PT. OPERATIONS =  6.90E+09

     CHECK POINT   START OF SOLVER    

     CHECK POINT  END OF SOLVER       

       ELAPSED USER TIME (SEC)      =   1.1000    
       ELAPSED SYSTEM TIME (SEC)    =  0.10000    
       ELAPSED TOTAL CPU TIME (SEC) =   1.2000    
       ELAPSED WALLCLOCK TIME (SEC) =          1

               CONVERGENCE CHECKS FOR EQUILIBRIUM ITERATION     2


 AVERAGE FORCE                       11.9       TIME AVG. FORCE        5.01    
 LARGEST RESIDUAL FORCE            -2.905E-04   AT NODE        692   DOF  2
   INSTANCE: PART-1-1                                                                        
 LARGEST INCREMENT OF DISP.          1.55       AT NODE         39   DOF  2
   INSTANCE: PART-1-1                                                                        
 LARGEST CORRECTION TO DISP.       -1.314E-03   AT NODE       1092   DOF  3
   INSTANCE: PART-1-1                                                                        
          THE FORCE     EQUILIBRIUM EQUATIONS HAVE CONVERGED

 AVERAGE MOMENT                     0.260       TIME AVG. MOMENT      0.108    
 LARGEST RESIDUAL MOMENT            1.582E-03   AT NODE          4   DOF  4
   INSTANCE:                                                                                 
 LARGEST INCREMENT OF ROTATION     -2.119E-03   AT NODE         44   DOF  4
   INSTANCE: PART-1-1                                                                        
 LARGEST CORRECTION TO ROTATION     5.001E-05   AT NODE       4824   DOF  6
   INSTANCE: PART-1-1                                                                        
          MOMENT    EQUILIBRIUM NOT ACHIEVED WITHIN TOLERANCE.

 COMPATIBILITY ERRORS:
    TYPE                NUMBER EXCEEDING TOLERANCE  MAXIMUM ERROR        IN ELEMENT
 COUPLING DISPLACEMENT               0               -6.775E-13                  4
   INSTANCE: {assembly node}                                                                 
 COUPLING ROTATION                   0                9.490E-10                  9
   INSTANCE: {assembly node}                                                                 

  NUMBER OF EQUATIONS =     81552     NUMBER OF RHS =    2
  NUMBER OF FLOATING PT. OPERATIONS =  6.90E+09

     CHECK POINT   START OF SOLVER    

     CHECK POINT  END OF SOLVER       

       ELAPSED USER TIME (SEC)      =   1.1000    
       ELAPSED SYSTEM TIME (SEC)    =   0.0000    
       ELAPSED TOTAL CPU TIME (SEC) =   1.1000    
       ELAPSED WALLCLOCK TIME (SEC) =          1

               CONVERGENCE CHECKS FOR EQUILIBRIUM ITERATION     3


 AVERAGE FORCE                       11.9       TIME AVG. FORCE        5.01    
 LARGEST RESIDUAL FORCE             1.127E-07   AT NODE       7731   DOF  3
   INSTANCE: PART-1-1                                                                        
 LARGEST INCREMENT OF DISP.          1.55       AT NODE         39   DOF  2
   INSTANCE: PART-1-1                                                                        
 LARGEST CORRECTION TO DISP.       -6.147E-06   AT NODE       1542   DOF  1
   INSTANCE: PART-1-1                                                                        
          THE FORCE     EQUILIBRIUM EQUATIONS HAVE CONVERGED

 AVERAGE MOMENT                     0.260       TIME AVG. MOMENT      0.108    
 LARGEST RESIDUAL MOMENT            1.769E-06   AT NODE      13573   DOF  4
   INSTANCE: PART-1-1                                                                        
 LARGEST INCREMENT OF ROTATION     -2.119E-03   AT NODE         44   DOF  4
   INSTANCE: PART-1-1                                                                        
 LARGEST CORRECTION TO ROTATION    -3.819E-07   AT NODE       1541   DOF  5
   INSTANCE: PART-1-1                                                                        
          THE MOMENT    EQUILIBRIUM EQUATIONS HAVE CONVERGED

 COMPATIBILITY ERRORS:
    TYPE                NUMBER EXCEEDING TOLERANCE  MAXIMUM ERROR        IN ELEMENT
 COUPLING DISPLACEMENT               0                6.839E-17                  4
   INSTANCE: {assembly node}                                                                 
 COUPLING ROTATION                   0                1.053E-12                  9
   INSTANCE: {assembly node}                                                                 

 ITERATION SUMMARY FOR THE INCREMENT:   3 TOTAL ITERATIONS, OF WHICH
   0 ARE SEVERE DISCONTINUITY ITERATIONS AND  3 ARE EQUILIBRIUM ITERATIONS.


                                INCREMENT     6 SUMMARY


     CURRENT LOAD PROPORTIONALITY FACTOR         0.1412    
     TOTAL ARC LENGTH   0.141    , INCREMENT OF ARC LENGTH   5.000E-02


  INCREMENT     7 STARTS. ATTEMPT NUMBER  1

  NUMBER OF EQUATIONS =     81552     NUMBER OF RHS =    2
  NUMBER OF FLOATING PT. OPERATIONS =  6.90E+09

     CHECK POINT   START OF SOLVER    

     CHECK POINT  END OF SOLVER       

       ELAPSED USER TIME (SEC)      =   1.1000    
       ELAPSED SYSTEM TIME (SEC)    =   0.0000    
       ELAPSED TOTAL CPU TIME (SEC) =   1.1000    
       ELAPSED WALLCLOCK TIME (SEC) =          1

               CONVERGENCE CHECKS FOR EQUILIBRIUM ITERATION     1


 AVERAGE FORCE                       16.2       TIME AVG. FORCE        6.61    
 LARGEST RESIDUAL FORCE             -2.11       AT NODE       1229   DOF  3
   INSTANCE: PART-1-1                                                                        
 LARGEST INCREMENT OF DISP.          1.55       AT NODE         38   DOF  2
   INSTANCE: PART-1-1                                                                        
 LARGEST CORRECTION TO DISP.         1.55       AT NODE         38   DOF  2
   INSTANCE: PART-1-1                                                                        
          FORCE     EQUILIBRIUM NOT ACHIEVED WITHIN TOLERANCE.

 AVERAGE MOMENT                     0.356       TIME AVG. MOMENT      0.144    
 LARGEST RESIDUAL MOMENT           -0.834       AT NODE      13573   DOF  5
   INSTANCE: PART-1-1                                                                        
 LARGEST INCREMENT OF ROTATION     -2.119E-03   AT NODE         44   DOF  4
   INSTANCE: PART-1-1                                                                        
 LARGEST CORRECTION TO ROTATION    -2.119E-03   AT NODE         44   DOF  4
   INSTANCE: PART-1-1                                                                        
          MOMENT    EQUILIBRIUM NOT ACHIEVED WITHIN TOLERANCE.

 COMPATIBILITY ERRORS:
    TYPE                NUMBER EXCEEDING TOLERANCE  MAXIMUM ERROR        IN ELEMENT
 COUPLING DISPLACEMENT               0                2.869E-07                  3
   INSTANCE: {assembly node}                                                                 
 COUPLING ROTATION                   0               -9.438E-07                  9
   INSTANCE: {assembly node}                                                                 

  NUMBER OF EQUATIONS =     81552     NUMBER OF RHS =    2
  NUMBER OF FLOATING PT. OPERATIONS =  6.90E+09

     CHECK POINT   START OF SOLVER    

     CHECK POINT  END OF SOLVER       

       ELAPSED USER TIME (SEC)      =   1.2000    
       ELAPSED SYSTEM TIME (SEC)    =  0.10000    
       ELAPSED TOTAL CPU TIME (SEC) =   1.3000    
       ELAPSED WALLCLOCK TIME (SEC) =          1

               CONVERGENCE CHECKS FOR EQUILIBRIUM ITERATION     2


 AVERAGE FORCE                       16.2       TIME AVG. FORCE        6.60    
 LARGEST RESIDUAL FORCE            -3.344E-04   AT NODE        693   DOF  2
   INSTANCE: PART-1-1                                                                        
 LARGEST INCREMENT OF DISP.          1.55       AT NODE         38   DOF  2
   INSTANCE: PART-1-1                                                                        
 LARGEST CORRECTION TO DISP.       -1.314E-03   AT NODE         38   DOF  3
   INSTANCE: PART-1-1                                                                        
          THE FORCE     EQUILIBRIUM EQUATIONS HAVE CONVERGED

 AVERAGE MOMENT                     0.358       TIME AVG. MOMENT      0.144    
 LARGEST RESIDUAL MOMENT            2.144E-03   AT NODE          4   DOF  4
   INSTANCE:                                                                                 
 LARGEST INCREMENT OF ROTATION     -2.119E-03   AT NODE         44   DOF  4
   INSTANCE: PART-1-1                                                                        
 LARGEST CORRECTION TO ROTATION     5.447E-05   AT NODE       4824   DOF  6
   INSTANCE: PART-1-1                                                                        
          MOMENT    EQUILIBRIUM NOT ACHIEVED WITHIN TOLERANCE.

 COMPATIBILITY ERRORS:
    TYPE                NUMBER EXCEEDING TOLERANCE  MAXIMUM ERROR        IN ELEMENT
 COUPLING DISPLACEMENT               0               -6.835E-13                  4
   INSTANCE: {assembly node}                                                                 
 COUPLING ROTATION                   0                9.465E-10                  9
   INSTANCE: {assembly node}                                                                 

  NUMBER OF EQUATIONS =     81552     NUMBER OF RHS =    2
  NUMBER OF FLOATING PT. OPERATIONS =  6.90E+09

     CHECK POINT   START OF SOLVER    

     CHECK POINT  END OF SOLVER       

       ELAPSED USER TIME (SEC)      =   1.0000    
       ELAPSED SYSTEM TIME (SEC)    =   0.0000    
       ELAPSED TOTAL CPU TIME (SEC) =   1.0000    
       ELAPSED WALLCLOCK TIME (SEC) =          1

               CONVERGENCE CHECKS FOR EQUILIBRIUM ITERATION     3


 AVERAGE FORCE                       16.2       TIME AVG. FORCE        6.60    
 LARGEST RESIDUAL FORCE            -1.081E-07   AT NODE       7716   DOF  3
   INSTANCE: PART-1-1                                                                        
 LARGEST INCREMENT OF DISP.          1.55       AT NODE         38   DOF  2
   INSTANCE: PART-1-1                                                                        
 LARGEST CORRECTION TO DISP.       -6.985E-06   AT NODE       1542   DOF  1
   INSTANCE: PART-1-1                                                                        
          THE FORCE     EQUILIBRIUM EQUATIONS HAVE CONVERGED

 AVERAGE MOMENT                     0.358       TIME AVG. MOMENT      0.144    
 LARGEST RESIDUAL MOMENT            2.435E-06   AT NODE      13573   DOF  4
   INSTANCE: PART-1-1                                                                        
 LARGEST INCREMENT OF ROTATION     -2.119E-03   AT NODE         44   DOF  4
   INSTANCE: PART-1-1                                                                        
 LARGEST CORRECTION TO ROTATION    -4.562E-07   AT NODE       1541   DOF  5
   INSTANCE: PART-1-1                                                                        
          THE MOMENT    EQUILIBRIUM EQUATIONS HAVE CONVERGED

 COMPATIBILITY ERRORS:
    TYPE                NUMBER EXCEEDING TOLERANCE  MAXIMUM ERROR        IN ELEMENT
 COUPLING DISPLACEMENT               0               -4.735E-17                  2
   INSTANCE: {assembly node}                                                                 
 COUPLING ROTATION                   0                1.050E-12                  9
   INSTANCE: {assembly node}                                                                 

 ITERATION SUMMARY FOR THE INCREMENT:   3 TOTAL ITERATIONS, OF WHICH
   0 ARE SEVERE DISCONTINUITY ITERATIONS AND  3 ARE EQUILIBRIUM ITERATIONS.


                                INCREMENT     7 SUMMARY


     CURRENT LOAD PROPORTIONALITY FACTOR         0.1912    
     TOTAL ARC LENGTH   0.191    , INCREMENT OF ARC LENGTH   5.000E-02


  INCREMENT     8 STARTS. ATTEMPT NUMBER  1

  NUMBER OF EQUATIONS =     81552     NUMBER OF RHS =    2
  NUMBER OF FLOATING PT. OPERATIONS =  6.90E+09

     CHECK POINT   START OF SOLVER    

     CHECK POINT  END OF SOLVER       

       ELAPSED USER TIME (SEC)      =   1.1000    
       ELAPSED SYSTEM TIME (SEC)    =   0.0000    
       ELAPSED TOTAL CPU TIME (SEC) =   1.1000    
       ELAPSED WALLCLOCK TIME (SEC) =          1

               CONVERGENCE CHECKS FOR EQUILIBRIUM ITERATION     1


 AVERAGE FORCE                       20.4       TIME AVG. FORCE        8.34    
 LARGEST RESIDUAL FORCE             -2.11       AT NODE       1229   DOF  3
   INSTANCE: PART-1-1                                                                        
 LARGEST INCREMENT OF DISP.          1.55       AT NODE         38   DOF  2
   INSTANCE: PART-1-1                                                                        
 LARGEST CORRECTION TO DISP.         1.55       AT NODE         38   DOF  2
   INSTANCE: PART-1-1                                                                        
          FORCE     EQUILIBRIUM NOT ACHIEVED WITHIN TOLERANCE.

 AVERAGE MOMENT                     0.457       TIME AVG. MOMENT      0.183    
 LARGEST RESIDUAL MOMENT            -1.23       AT NODE      13573   DOF  5
   INSTANCE: PART-1-1                                                                        
 LARGEST INCREMENT OF ROTATION     -2.118E-03   AT NODE         44   DOF  4
   INSTANCE: PART-1-1                                                                        
 LARGEST CORRECTION TO ROTATION    -2.118E-03   AT NODE         44   DOF  4
   INSTANCE: PART-1-1                                                                        
          MOMENT    EQUILIBRIUM NOT ACHIEVED WITHIN TOLERANCE.

 COMPATIBILITY ERRORS:
    TYPE                NUMBER EXCEEDING TOLERANCE  MAXIMUM ERROR        IN ELEMENT
 COUPLING DISPLACEMENT               0                2.875E-07                  3
   INSTANCE: {assembly node}                                                                 
 COUPLING ROTATION                   0               -9.419E-07                  9
   INSTANCE: {assembly node}                                                                 

  NUMBER OF EQUATIONS =     81552     NUMBER OF RHS =    2
  NUMBER OF FLOATING PT. OPERATIONS =  6.90E+09

     CHECK POINT   START OF SOLVER    

     CHECK POINT  END OF SOLVER       

       ELAPSED USER TIME (SEC)      =   1.1000    
       ELAPSED SYSTEM TIME (SEC)    =   0.0000    
       ELAPSED TOTAL CPU TIME (SEC) =   1.1000    
       ELAPSED WALLCLOCK TIME (SEC) =          1

               CONVERGENCE CHECKS FOR EQUILIBRIUM ITERATION     2


 AVERAGE FORCE                       20.4       TIME AVG. FORCE        8.33    
 LARGEST RESIDUAL FORCE            -3.977E-04   AT NODE        693   DOF  2
   INSTANCE: PART-1-1                                                                        
 LARGEST INCREMENT OF DISP.          1.55       AT NODE         38   DOF  2
   INSTANCE: PART-1-1                                                                        
 LARGEST CORRECTION TO DISP.       -1.315E-03   AT NODE         38   DOF  3
   INSTANCE: PART-1-1                                                                        
          THE FORCE     EQUILIBRIUM EQUATIONS HAVE CONVERGED

 AVERAGE MOMENT                     0.458       TIME AVG. MOMENT      0.183    
 LARGEST RESIDUAL MOMENT            2.708E-03   AT NODE          4   DOF  4
   INSTANCE:                                                                                 
 LARGEST INCREMENT OF ROTATION     -2.118E-03   AT NODE         44   DOF  4
   INSTANCE: PART-1-1                                                                        
 LARGEST CORRECTION TO ROTATION     6.028E-05   AT NODE       4836   DOF  6
   INSTANCE: PART-1-1                                                                        
          MOMENT    EQUILIBRIUM NOT ACHIEVED WITHIN TOLERANCE.

 COMPATIBILITY ERRORS:
    TYPE                NUMBER EXCEEDING TOLERANCE  MAXIMUM ERROR        IN ELEMENT
 COUPLING DISPLACEMENT               0               -6.896E-13                  4
   INSTANCE: {assembly node}                                                                 
 COUPLING ROTATION                   0                9.440E-10                  9
   INSTANCE: {assembly node}                                                                 

  NUMBER OF EQUATIONS =     81552     NUMBER OF RHS =    2
  NUMBER OF FLOATING PT. OPERATIONS =  6.90E+09

     CHECK POINT   START OF SOLVER    

     CHECK POINT  END OF SOLVER       

       ELAPSED USER TIME (SEC)      =   1.1000    
       ELAPSED SYSTEM TIME (SEC)    =   0.0000    
       ELAPSED TOTAL CPU TIME (SEC) =   1.1000    
       ELAPSED WALLCLOCK TIME (SEC) =          2

               CONVERGENCE CHECKS FOR EQUILIBRIUM ITERATION     3


 AVERAGE FORCE                       20.4       TIME AVG. FORCE        8.33    
 LARGEST RESIDUAL FORCE            -1.245E-07   AT NODE       7725   DOF  3
   INSTANCE: PART-1-1                                                                        
 LARGEST INCREMENT OF DISP.          1.55       AT NODE         38   DOF  2
   INSTANCE: PART-1-1                                                                        
 LARGEST CORRECTION TO DISP.       -8.110E-06   AT NODE       1542   DOF  1
   INSTANCE: PART-1-1                                                                        
          THE FORCE     EQUILIBRIUM EQUATIONS HAVE CONVERGED

 AVERAGE MOMENT                     0.459       TIME AVG. MOMENT      0.183    
 LARGEST RESIDUAL MOMENT            3.125E-06   AT NODE      13573   DOF  4
   INSTANCE: PART-1-1                                                                        
 LARGEST INCREMENT OF ROTATION     -2.118E-03   AT NODE         44   DOF  4
   INSTANCE: PART-1-1                                                                        
 LARGEST CORRECTION TO ROTATION    -5.567E-07   AT NODE       1541   DOF  5
   INSTANCE: PART-1-1                                                                        
          THE MOMENT    EQUILIBRIUM EQUATIONS HAVE CONVERGED

 COMPATIBILITY ERRORS:
    TYPE                NUMBER EXCEEDING TOLERANCE  MAXIMUM ERROR        IN ELEMENT
 COUPLING DISPLACEMENT               0               -3.365E-17                  9
   INSTANCE: {assembly node}                                                                 
 COUPLING ROTATION                   0                1.046E-12                  9
   INSTANCE: {assembly node}                                                                 

 ITERATION SUMMARY FOR THE INCREMENT:   3 TOTAL ITERATIONS, OF WHICH
   0 ARE SEVERE DISCONTINUITY ITERATIONS AND  3 ARE EQUILIBRIUM ITERATIONS.


                                INCREMENT     8 SUMMARY


     CURRENT LOAD PROPORTIONALITY FACTOR         0.2412    
     TOTAL ARC LENGTH   0.241    , INCREMENT OF ARC LENGTH   5.000E-02


  INCREMENT     9 STARTS. ATTEMPT NUMBER  1

  NUMBER OF EQUATIONS =     81552     NUMBER OF RHS =    2
  NUMBER OF FLOATING PT. OPERATIONS =  6.90E+09

     CHECK POINT   START OF SOLVER    

     CHECK POINT  END OF SOLVER       

       ELAPSED USER TIME (SEC)      =   1.1000    
       ELAPSED SYSTEM TIME (SEC)    =   0.0000    
       ELAPSED TOTAL CPU TIME (SEC) =   1.1000    
       ELAPSED WALLCLOCK TIME (SEC) =          1

               CONVERGENCE CHECKS FOR EQUILIBRIUM ITERATION     1


 AVERAGE FORCE                       24.7       TIME AVG. FORCE        10.2    
 LARGEST RESIDUAL FORCE             -2.11       AT NODE       1229   DOF  3
   INSTANCE: PART-1-1                                                                        
 LARGEST INCREMENT OF DISP.          1.55       AT NODE         38   DOF  2
   INSTANCE: PART-1-1                                                                        
 LARGEST CORRECTION TO DISP.         1.55       AT NODE         38   DOF  2
   INSTANCE: PART-1-1                                                                        
          FORCE     EQUILIBRIUM NOT ACHIEVED WITHIN TOLERANCE.

 AVERAGE MOMENT                     0.561       TIME AVG. MOMENT      0.225    
 LARGEST RESIDUAL MOMENT            -1.62       AT NODE      13573   DOF  5
   INSTANCE: PART-1-1                                                                        
 LARGEST INCREMENT OF ROTATION     -2.118E-03   AT NODE         44   DOF  4
   INSTANCE: PART-1-1                                                                        
 LARGEST CORRECTION TO ROTATION    -2.118E-03   AT NODE         44   DOF  4
   INSTANCE: PART-1-1                                                                        
          MOMENT    EQUILIBRIUM NOT ACHIEVED WITHIN TOLERANCE.

 COMPATIBILITY ERRORS:
    TYPE                NUMBER EXCEEDING TOLERANCE  MAXIMUM ERROR        IN ELEMENT
 COUPLING DISPLACEMENT               0                2.881E-07                  3
   INSTANCE: {assembly node}                                                                 
 COUPLING ROTATION                   0               -9.399E-07                  9
   INSTANCE: {assembly node}                                                                 

  NUMBER OF EQUATIONS =     81552     NUMBER OF RHS =    2
  NUMBER OF FLOATING PT. OPERATIONS =  6.90E+09

     CHECK POINT   START OF SOLVER    

     CHECK POINT  END OF SOLVER       

       ELAPSED USER TIME (SEC)      =   1.1000    
       ELAPSED SYSTEM TIME (SEC)    =   0.0000    
       ELAPSED TOTAL CPU TIME (SEC) =   1.1000    
       ELAPSED WALLCLOCK TIME (SEC) =          1

               CONVERGENCE CHECKS FOR EQUILIBRIUM ITERATION     2


 AVERAGE FORCE                       24.7       TIME AVG. FORCE        10.1    
 LARGEST RESIDUAL FORCE            -4.919E-04   AT NODE        694   DOF  2
   INSTANCE: PART-1-1                                                                        
 LARGEST INCREMENT OF DISP.          1.55       AT NODE         38   DOF  2
   INSTANCE: PART-1-1                                                                        
 LARGEST CORRECTION TO DISP.       -1.316E-03   AT NODE         38   DOF  3
   INSTANCE: PART-1-1                                                                        
          THE FORCE     EQUILIBRIUM EQUATIONS HAVE CONVERGED

 AVERAGE MOMENT                     0.563       TIME AVG. MOMENT      0.225    
 LARGEST RESIDUAL MOMENT            3.271E-03   AT NODE          4   DOF  4
   INSTANCE:                                                                                 
 LARGEST INCREMENT OF ROTATION     -2.118E-03   AT NODE         44   DOF  4
   INSTANCE: PART-1-1                                                                        
 LARGEST CORRECTION TO ROTATION     6.781E-05   AT NODE       4836   DOF  6
   INSTANCE: PART-1-1                                                                        
          MOMENT    EQUILIBRIUM NOT ACHIEVED WITHIN TOLERANCE.

 COMPATIBILITY ERRORS:
    TYPE                NUMBER EXCEEDING TOLERANCE  MAXIMUM ERROR        IN ELEMENT
 COUPLING DISPLACEMENT               0               -6.959E-13                  4
   INSTANCE: {assembly node}                                                                 
 COUPLING ROTATION                   0                9.414E-10                  9
   INSTANCE: {assembly node}                                                                 

  NUMBER OF EQUATIONS =     81552     NUMBER OF RHS =    2
  NUMBER OF FLOATING PT. OPERATIONS =  6.90E+09

     CHECK POINT   START OF SOLVER    

     CHECK POINT  END OF SOLVER       

       ELAPSED USER TIME (SEC)      =   1.1000    
       ELAPSED SYSTEM TIME (SEC)    =  0.10000    
       ELAPSED TOTAL CPU TIME (SEC) =   1.2000    
       ELAPSED WALLCLOCK TIME (SEC) =          2

               CONVERGENCE CHECKS FOR EQUILIBRIUM ITERATION     3


 AVERAGE FORCE                       24.7       TIME AVG. FORCE        10.1    
 LARGEST RESIDUAL FORCE            -1.077E-07   AT NODE      11765   DOF  3
   INSTANCE: PART-1-1                                                                        
 LARGEST INCREMENT OF DISP.          1.55       AT NODE         38   DOF  2
   INSTANCE: PART-1-1                                                                        
 LARGEST CORRECTION TO DISP.       -9.655E-06   AT NODE       1542   DOF  1
   INSTANCE: PART-1-1                                                                        
          THE FORCE     EQUILIBRIUM EQUATIONS HAVE CONVERGED

 AVERAGE MOMENT                     0.563       TIME AVG. MOMENT      0.225    
 LARGEST RESIDUAL MOMENT            3.839E-06   AT NODE      13573   DOF  4
   INSTANCE: PART-1-1                                                                        
 LARGEST INCREMENT OF ROTATION     -2.118E-03   AT NODE         44   DOF  4
   INSTANCE: PART-1-1                                                                        
 LARGEST CORRECTION TO ROTATION    -6.955E-07   AT NODE       1541   DOF  5
   INSTANCE: PART-1-1                                                                        
          THE MOMENT    EQUILIBRIUM EQUATIONS HAVE CONVERGED

 COMPATIBILITY ERRORS:
    TYPE                NUMBER EXCEEDING TOLERANCE  MAXIMUM ERROR        IN ELEMENT
 COUPLING DISPLACEMENT               0                5.949E-17                  2
   INSTANCE: {assembly node}                                                                 
 COUPLING ROTATION                   0                1.043E-12                  9
   INSTANCE: {assembly node}                                                                 

 ITERATION SUMMARY FOR THE INCREMENT:   3 TOTAL ITERATIONS, OF WHICH
   0 ARE SEVERE DISCONTINUITY ITERATIONS AND  3 ARE EQUILIBRIUM ITERATIONS.


                                INCREMENT     9 SUMMARY


     CURRENT LOAD PROPORTIONALITY FACTOR         0.2911    
     TOTAL ARC LENGTH   0.291    , INCREMENT OF ARC LENGTH   5.000E-02


  INCREMENT    10 STARTS. ATTEMPT NUMBER  1

  NUMBER OF EQUATIONS =     81552     NUMBER OF RHS =    2
  NUMBER OF FLOATING PT. OPERATIONS =  6.90E+09

     CHECK POINT   START OF SOLVER    

     CHECK POINT  END OF SOLVER       

       ELAPSED USER TIME (SEC)      =   1.1000    
       ELAPSED SYSTEM TIME (SEC)    =  0.10000    
       ELAPSED TOTAL CPU TIME (SEC) =   1.2000    
       ELAPSED WALLCLOCK TIME (SEC) =          1

               CONVERGENCE CHECKS FOR EQUILIBRIUM ITERATION     1


 AVERAGE FORCE                       28.9       TIME AVG. FORCE        12.0    
 LARGEST RESIDUAL FORCE             -2.11       AT NODE       1229   DOF  3
   INSTANCE: PART-1-1                                                                        
 LARGEST INCREMENT OF DISP.          1.55       AT NODE         38   DOF  2
   INSTANCE: PART-1-1                                                                        
 LARGEST CORRECTION TO DISP.         1.55       AT NODE         38   DOF  2
   INSTANCE: PART-1-1                                                                        
          FORCE     EQUILIBRIUM NOT ACHIEVED WITHIN TOLERANCE.

 AVERAGE MOMENT                     0.670       TIME AVG. MOMENT      0.270    
 LARGEST RESIDUAL MOMENT            -2.01       AT NODE      13573   DOF  5
   INSTANCE: PART-1-1                                                                        
 LARGEST INCREMENT OF ROTATION     -2.118E-03   AT NODE         44   DOF  4
   INSTANCE: PART-1-1                                                                        
 LARGEST CORRECTION TO ROTATION    -2.118E-03   AT NODE         44   DOF  4
   INSTANCE: PART-1-1                                                                        
          MOMENT    EQUILIBRIUM NOT ACHIEVED WITHIN TOLERANCE.

 COMPATIBILITY ERRORS:
    TYPE                NUMBER EXCEEDING TOLERANCE  MAXIMUM ERROR        IN ELEMENT
 COUPLING DISPLACEMENT               0                2.887E-07                  3
   INSTANCE: {assembly node}                                                                 
 COUPLING ROTATION                   0               -9.378E-07                  9
   INSTANCE: {assembly node}                                                                 

  NUMBER OF EQUATIONS =     81552     NUMBER OF RHS =    2
  NUMBER OF FLOATING PT. OPERATIONS =  6.90E+09

     CHECK POINT   START OF SOLVER    

     CHECK POINT  END OF SOLVER       

       ELAPSED USER TIME (SEC)      =   1.1000    
       ELAPSED SYSTEM TIME (SEC)    =   0.0000    
       ELAPSED TOTAL CPU TIME (SEC) =   1.1000    
       ELAPSED WALLCLOCK TIME (SEC) =          1

               CONVERGENCE CHECKS FOR EQUILIBRIUM ITERATION     2


 AVERAGE FORCE                       28.9       TIME AVG. FORCE        12.0    
 LARGEST RESIDUAL FORCE            -6.341E-04   AT NODE        694   DOF  2
   INSTANCE: PART-1-1                                                                        
 LARGEST INCREMENT OF DISP.          1.55       AT NODE         38   DOF  2
   INSTANCE: PART-1-1                                                                        
 LARGEST CORRECTION TO DISP.       -1.367E-03   AT NODE       4843   DOF  2
   INSTANCE: PART-1-1                                                                        
          THE FORCE     EQUILIBRIUM EQUATIONS HAVE CONVERGED

 AVERAGE MOMENT                     0.672       TIME AVG. MOMENT      0.270    
 LARGEST RESIDUAL MOMENT            3.834E-03   AT NODE          4   DOF  4
   INSTANCE:                                                                                 
 LARGEST INCREMENT OF ROTATION     -2.118E-03   AT NODE         44   DOF  4
   INSTANCE: PART-1-1                                                                        
 LARGEST CORRECTION TO ROTATION     7.795E-05   AT NODE       4848   DOF  6
   INSTANCE: PART-1-1                                                                        
          MOMENT    EQUILIBRIUM NOT ACHIEVED WITHIN TOLERANCE.

 COMPATIBILITY ERRORS:
    TYPE                NUMBER EXCEEDING TOLERANCE  MAXIMUM ERROR        IN ELEMENT
 COUPLING DISPLACEMENT               0               -7.024E-13                  4
   INSTANCE: {assembly node}                                                                 
 COUPLING ROTATION                   0                9.387E-10                  9
   INSTANCE: {assembly node}                                                                 

  NUMBER OF EQUATIONS =     81552     NUMBER OF RHS =    2
  NUMBER OF FLOATING PT. OPERATIONS =  6.90E+09

     CHECK POINT   START OF SOLVER    

     CHECK POINT  END OF SOLVER       

       ELAPSED USER TIME (SEC)      =   1.1000    
       ELAPSED SYSTEM TIME (SEC)    =   0.0000    
       ELAPSED TOTAL CPU TIME (SEC) =   1.1000    
       ELAPSED WALLCLOCK TIME (SEC) =          2

               CONVERGENCE CHECKS FOR EQUILIBRIUM ITERATION     3


 AVERAGE FORCE                       28.9       TIME AVG. FORCE        12.0    
 LARGEST RESIDUAL FORCE            -1.187E-07   AT NODE       7705   DOF  3
   INSTANCE: PART-1-1                                                                        
 LARGEST INCREMENT OF DISP.          1.55       AT NODE         38   DOF  2
   INSTANCE: PART-1-1                                                                        
 LARGEST CORRECTION TO DISP.       -1.183E-05   AT NODE       1542   DOF  1
   INSTANCE: PART-1-1                                                                        
          THE FORCE     EQUILIBRIUM EQUATIONS HAVE CONVERGED

 AVERAGE MOMENT                     0.672       TIME AVG. MOMENT      0.270    
 LARGEST RESIDUAL MOMENT            4.574E-06   AT NODE      13573   DOF  4
   INSTANCE: PART-1-1                                                                        
 LARGEST INCREMENT OF ROTATION     -2.118E-03   AT NODE         44   DOF  4
   INSTANCE: PART-1-1                                                                        
 LARGEST CORRECTION TO ROTATION    -8.916E-07   AT NODE       1541   DOF  5
   INSTANCE: PART-1-1                                                                        
          THE MOMENT    EQUILIBRIUM EQUATIONS HAVE CONVERGED

 COMPATIBILITY ERRORS:
    TYPE                NUMBER EXCEEDING TOLERANCE  MAXIMUM ERROR        IN ELEMENT
 COUPLING DISPLACEMENT               0                8.251E-17              13521
   INSTANCE: PART-1-1                                                                        
 COUPLING ROTATION                   0                1.039E-12                  9
   INSTANCE: {assembly node}                                                                 

 ITERATION SUMMARY FOR THE INCREMENT:   3 TOTAL ITERATIONS, OF WHICH
   0 ARE SEVERE DISCONTINUITY ITERATIONS AND  3 ARE EQUILIBRIUM ITERATIONS.


                                INCREMENT    10 SUMMARY


     CURRENT LOAD PROPORTIONALITY FACTOR         0.3410    
     TOTAL ARC LENGTH   0.341    , INCREMENT OF ARC LENGTH   5.000E-02


  INCREMENT    11 STARTS. ATTEMPT NUMBER  1

  NUMBER OF EQUATIONS =     81552     NUMBER OF RHS =    2
  NUMBER OF FLOATING PT. OPERATIONS =  6.90E+09

     CHECK POINT   START OF SOLVER    

     CHECK POINT  END OF SOLVER       

       ELAPSED USER TIME (SEC)      =   1.1000    
       ELAPSED SYSTEM TIME (SEC)    =   0.0000    
       ELAPSED TOTAL CPU TIME (SEC) =   1.1000    
       ELAPSED WALLCLOCK TIME (SEC) =          2

               CONVERGENCE CHECKS FOR EQUILIBRIUM ITERATION     1


 AVERAGE FORCE                       33.2       TIME AVG. FORCE        13.9    
 LARGEST RESIDUAL FORCE             -2.11       AT NODE       1229   DOF  3
   INSTANCE: PART-1-1                                                                        
 LARGEST INCREMENT OF DISP.          1.55       AT NODE         38   DOF  2
   INSTANCE: PART-1-1                                                                        
 LARGEST CORRECTION TO DISP.         1.55       AT NODE         38   DOF  2
   INSTANCE: PART-1-1                                                                        
          FORCE     EQUILIBRIUM NOT ACHIEVED WITHIN TOLERANCE.

 AVERAGE MOMENT                     0.783       TIME AVG. MOMENT      0.317    
 LARGEST RESIDUAL MOMENT            -2.40       AT NODE      13573   DOF  5
   INSTANCE: PART-1-1                                                                        
 LARGEST INCREMENT OF ROTATION     -2.118E-03   AT NODE         44   DOF  4
   INSTANCE: PART-1-1                                                                        
 LARGEST CORRECTION TO ROTATION    -2.118E-03   AT NODE         44   DOF  4
   INSTANCE: PART-1-1                                                                        
          MOMENT    EQUILIBRIUM NOT ACHIEVED WITHIN TOLERANCE.

 COMPATIBILITY ERRORS:
    TYPE                NUMBER EXCEEDING TOLERANCE  MAXIMUM ERROR        IN ELEMENT
 COUPLING DISPLACEMENT               0                2.893E-07                  3
   INSTANCE: {assembly node}                                                                 
 COUPLING ROTATION                   0               -9.355E-07                  9
   INSTANCE: {assembly node}                                                                 

  NUMBER OF EQUATIONS =     81552     NUMBER OF RHS =    2
  NUMBER OF FLOATING PT. OPERATIONS =  6.90E+09

     CHECK POINT   START OF SOLVER    

     CHECK POINT  END OF SOLVER       

       ELAPSED USER TIME (SEC)      =   1.1000    
       ELAPSED SYSTEM TIME (SEC)    =  0.10000    
       ELAPSED TOTAL CPU TIME (SEC) =   1.2000    
       ELAPSED WALLCLOCK TIME (SEC) =          1
 

 ***WARNING: THE SYSTEM MATRIX HAS 6 NEGATIVE EIGENVALUES.

     NEGATIVE EIGENVALUES MEAN THAT THE SYSTEM MATRIX IS NOT 
     POSITIVE DEFINITE:
     FOR EXAMPLE, A BIFURCATION (BUCKLING) LOAD MAY HAVE BEEN EXCEEDED.

               CONVERGENCE CHECKS FOR EQUILIBRIUM ITERATION     2


 AVERAGE FORCE                       33.2       TIME AVG. FORCE        13.9    
 LARGEST RESIDUAL FORCE            -8.617E-04   AT NODE        695   DOF  2
   INSTANCE: PART-1-1                                                                        
 LARGEST INCREMENT OF DISP.          1.55       AT NODE         38   DOF  2
   INSTANCE: PART-1-1                                                                        
 LARGEST CORRECTION TO DISP.       -1.620E-03   AT NODE       4843   DOF  2
   INSTANCE: PART-1-1                                                                        
          THE FORCE     EQUILIBRIUM EQUATIONS HAVE CONVERGED

 AVERAGE MOMENT                     0.785       TIME AVG. MOMENT      0.317    
 LARGEST RESIDUAL MOMENT            4.394E-03   AT NODE          4   DOF  4
   INSTANCE:                                                                                 
 LARGEST INCREMENT OF ROTATION     -2.118E-03   AT NODE         44   DOF  4
   INSTANCE: PART-1-1                                                                        
 LARGEST CORRECTION TO ROTATION     9.182E-05   AT NODE       4848   DOF  6
   INSTANCE: PART-1-1                                                                        
          MOMENT    EQUILIBRIUM NOT ACHIEVED WITHIN TOLERANCE.

 COMPATIBILITY ERRORS:
    TYPE                NUMBER EXCEEDING TOLERANCE  MAXIMUM ERROR        IN ELEMENT
 COUPLING DISPLACEMENT               0               -7.096E-13                  4
   INSTANCE: {assembly node}                                                                 
 COUPLING ROTATION                   0                9.358E-10                  9
   INSTANCE: {assembly node}                                                                 

  NUMBER OF EQUATIONS =     81552     NUMBER OF RHS =    2
  NUMBER OF FLOATING PT. OPERATIONS =  6.90E+09

     CHECK POINT   START OF SOLVER    

     CHECK POINT  END OF SOLVER       

       ELAPSED USER TIME (SEC)      =   1.1000    
       ELAPSED SYSTEM TIME (SEC)    =   0.0000    
       ELAPSED TOTAL CPU TIME (SEC) =   1.1000    
       ELAPSED WALLCLOCK TIME (SEC) =          1
 

 ***WARNING: THE SYSTEM MATRIX HAS 6 NEGATIVE EIGENVALUES.
             EXPLANATIONS ARE SUGGESTED AFTER THE FIRST OCCURRENCE OF THIS MESSAGE.

               CONVERGENCE CHECKS FOR EQUILIBRIUM ITERATION     3


 AVERAGE FORCE                       33.2       TIME AVG. FORCE        13.9    
 LARGEST RESIDUAL FORCE            -1.067E-07   AT NODE      11775   DOF  3
   INSTANCE: PART-1-1                                                                        
 LARGEST INCREMENT OF DISP.          1.55       AT NODE         38   DOF  2
   INSTANCE: PART-1-1                                                                        
 LARGEST CORRECTION TO DISP.       -2.326E-05   AT NODE       8011   DOF  1
   INSTANCE: PART-1-1                                                                        
          THE FORCE     EQUILIBRIUM EQUATIONS HAVE CONVERGED

 AVERAGE MOMENT                     0.785       TIME AVG. MOMENT      0.317    
 LARGEST RESIDUAL MOMENT            5.302E-06   AT NODE      13573   DOF  4
   INSTANCE: PART-1-1                                                                        
 LARGEST INCREMENT OF ROTATION     -2.118E-03   AT NODE         44   DOF  4
   INSTANCE: PART-1-1                                                                        
 LARGEST CORRECTION TO ROTATION    -2.430E-06   AT NODE      13135   DOF  5
   INSTANCE: PART-1-1                                                                        
          THE MOMENT    EQUILIBRIUM EQUATIONS HAVE CONVERGED

 COMPATIBILITY ERRORS:
    TYPE                NUMBER EXCEEDING TOLERANCE  MAXIMUM ERROR        IN ELEMENT
 COUPLING DISPLACEMENT               0               -6.737E-17              13521
   INSTANCE: PART-1-1                                                                        
 COUPLING ROTATION                   0                1.035E-12                  9
   INSTANCE: {assembly node}                                                                 

 ITERATION SUMMARY FOR THE INCREMENT:   3 TOTAL ITERATIONS, OF WHICH
   0 ARE SEVERE DISCONTINUITY ITERATIONS AND  3 ARE EQUILIBRIUM ITERATIONS.


                                INCREMENT    11 SUMMARY


     CURRENT LOAD PROPORTIONALITY FACTOR         0.3908    
     TOTAL ARC LENGTH   0.391    , INCREMENT OF ARC LENGTH   5.000E-02


  INCREMENT    12 STARTS. ATTEMPT NUMBER  1

  NUMBER OF EQUATIONS =     81552     NUMBER OF RHS =    2
  NUMBER OF FLOATING PT. OPERATIONS =  6.90E+09

     CHECK POINT   START OF SOLVER    

     CHECK POINT  END OF SOLVER       

       ELAPSED USER TIME (SEC)      =   1.1000    
       ELAPSED SYSTEM TIME (SEC)    =   0.0000    
       ELAPSED TOTAL CPU TIME (SEC) =   1.1000    
       ELAPSED WALLCLOCK TIME (SEC) =          1
 

 ***WARNING: THE SYSTEM MATRIX HAS 6 NEGATIVE EIGENVALUES.
             EXPLANATIONS ARE SUGGESTED AFTER THE FIRST OCCURRENCE OF THIS MESSAGE.

               CONVERGENCE CHECKS FOR EQUILIBRIUM ITERATION     1


 AVERAGE FORCE                       37.4       TIME AVG. FORCE        15.9    
 LARGEST RESIDUAL FORCE             -2.11       AT NODE       1229   DOF  3
   INSTANCE: PART-1-1                                                                        
 LARGEST INCREMENT OF DISP.          1.55       AT NODE         38   DOF  2
   INSTANCE: PART-1-1                                                                        
 LARGEST CORRECTION TO DISP.         1.55       AT NODE         38   DOF  2
   INSTANCE: PART-1-1                                                                        
          FORCE     EQUILIBRIUM NOT ACHIEVED WITHIN TOLERANCE.

 AVERAGE MOMENT                     0.900       TIME AVG. MOMENT      0.365    
 LARGEST RESIDUAL MOMENT            -2.79       AT NODE      13573   DOF  5
   INSTANCE: PART-1-1                                                                        
 LARGEST INCREMENT OF ROTATION     -2.118E-03   AT NODE         44   DOF  4
   INSTANCE: PART-1-1                                                                        
 LARGEST CORRECTION TO ROTATION    -2.118E-03   AT NODE         44   DOF  4
   INSTANCE: PART-1-1                                                                        
          MOMENT    EQUILIBRIUM NOT ACHIEVED WITHIN TOLERANCE.

 COMPATIBILITY ERRORS:
    TYPE                NUMBER EXCEEDING TOLERANCE  MAXIMUM ERROR        IN ELEMENT
 COUPLING DISPLACEMENT               0                2.899E-07                  3
   INSTANCE: {assembly node}                                                                 
 COUPLING ROTATION                   0               -9.332E-07                  9
   INSTANCE: {assembly node}                                                                 

  NUMBER OF EQUATIONS =     81552     NUMBER OF RHS =    2
  NUMBER OF FLOATING PT. OPERATIONS =  6.90E+09

     CHECK POINT   START OF SOLVER    

     CHECK POINT  END OF SOLVER       

       ELAPSED USER TIME (SEC)      =   1.1000    
       ELAPSED SYSTEM TIME (SEC)    =   0.0000    
       ELAPSED TOTAL CPU TIME (SEC) =   1.1000    
       ELAPSED WALLCLOCK TIME (SEC) =          1
 

 ***WARNING: THE SYSTEM MATRIX HAS 6 NEGATIVE EIGENVALUES.
             EXPLANATIONS ARE SUGGESTED AFTER THE FIRST OCCURRENCE OF THIS MESSAGE.

               CONVERGENCE CHECKS FOR EQUILIBRIUM ITERATION     2


 AVERAGE FORCE                       37.4       TIME AVG. FORCE        15.9    
 LARGEST RESIDUAL FORCE            -1.248E-03   AT NODE        695   DOF  2
   INSTANCE: PART-1-1                                                                        
 LARGEST INCREMENT OF DISP.          1.55       AT NODE         38   DOF  2
   INSTANCE: PART-1-1                                                                        
 LARGEST CORRECTION TO DISP.       -1.974E-03   AT NODE       4843   DOF  2
   INSTANCE: PART-1-1                                                                        
          THE FORCE     EQUILIBRIUM EQUATIONS HAVE CONVERGED

 AVERAGE MOMENT                     0.902       TIME AVG. MOMENT      0.366    
 LARGEST RESIDUAL MOMENT            4.949E-03   AT NODE          4   DOF  4
   INSTANCE:                                                                                 
 LARGEST INCREMENT OF ROTATION     -2.118E-03   AT NODE         44   DOF  4
   INSTANCE: PART-1-1                                                                        
 LARGEST CORRECTION TO ROTATION    -1.249E-04   AT NODE      13135   DOF  5
   INSTANCE: PART-1-1                                                                        
[...]
   INSTANCE: PART-1-1                                                                        
 LARGEST CORRECTION TO ROTATION     9.856E-04   AT NODE       4850   DOF  6
   INSTANCE: PART-1-1                                                                        
          MOMENT    EQUILIBRIUM NOT ACHIEVED WITHIN TOLERANCE.

 COMPATIBILITY ERRORS:
    TYPE                NUMBER EXCEEDING TOLERANCE  MAXIMUM ERROR        IN ELEMENT
 COUPLING DISPLACEMENT               0               -2.608E-11              13521
   INSTANCE: PART-1-1                                                                        
 COUPLING ROTATION                   0                5.881E-10                  9
   INSTANCE: {assembly node}                                                                 

  NUMBER OF EQUATIONS =     81552     NUMBER OF RHS =    2
  NUMBER OF FLOATING PT. OPERATIONS =  6.90E+09

     CHECK POINT   START OF SOLVER    

     CHECK POINT  END OF SOLVER       

       ELAPSED USER TIME (SEC)      =   1.1000    
       ELAPSED SYSTEM TIME (SEC)    =   0.0000    
       ELAPSED TOTAL CPU TIME (SEC) =   1.1000    
       ELAPSED WALLCLOCK TIME (SEC) =          1
 

 ***WARNING: THE SYSTEM MATRIX HAS 6 NEGATIVE EIGENVALUES.
             EXPLANATIONS ARE SUGGESTED AFTER THE FIRST OCCURRENCE OF THIS MESSAGE.

               CONVERGENCE CHECKS FOR EQUILIBRIUM ITERATION     3


 AVERAGE FORCE                       80.5       TIME AVG. FORCE        38.5    
 LARGEST RESIDUAL FORCE            -1.675E-03   AT NODE       1544   DOF  2
   INSTANCE: PART-1-1                                                                        
 LARGEST INCREMENT OF DISP.          1.52       AT NODE         38   DOF  2
   INSTANCE: PART-1-1                                                                        
 LARGEST CORRECTION TO DISP.       -4.087E-03   AT NODE       1542   DOF  1
   INSTANCE: PART-1-1                                                                        
          THE FORCE     EQUILIBRIUM EQUATIONS HAVE CONVERGED

 AVERAGE MOMENT                      7.00       TIME AVG. MOMENT       1.55    
 LARGEST RESIDUAL MOMENT            2.928E-03   AT NODE      13573   DOF  6
   INSTANCE: PART-1-1                                                                        
 LARGEST INCREMENT OF ROTATION      1.464E-02   AT NODE       4872   DOF  6
   INSTANCE: PART-1-1                                                                        
 LARGEST CORRECTION TO ROTATION    -3.485E-04   AT NODE       1540   DOF  5
   INSTANCE: PART-1-1                                                                        
 ESTIMATE OF ROTATION CORRECTION    2.255E-05
 MOMENT    EQUILIB. ACCEPTED BASED ON SMALL RESIDUAL AND ESTIMATED CORRECTION

 COMPATIBILITY ERRORS:
    TYPE                NUMBER EXCEEDING TOLERANCE  MAXIMUM ERROR        IN ELEMENT
 COUPLING DISPLACEMENT               0               -3.038E-13                  9
   INSTANCE: {assembly node}                                                                 
 COUPLING ROTATION                   0               -4.837E-11              13521
   INSTANCE: PART-1-1                                                                        

 ITERATION SUMMARY FOR THE INCREMENT:   3 TOTAL ITERATIONS, OF WHICH
   0 ARE SEVERE DISCONTINUITY ITERATIONS AND  3 ARE EQUILIBRIUM ITERATIONS.


                                INCREMENT    25 SUMMARY


     CURRENT LOAD PROPORTIONALITY FACTOR         0.9362    
     TOTAL ARC LENGTH   0.993    , INCREMENT OF ARC LENGTH   5.000E-02


  INCREMENT    26 STARTS. ATTEMPT NUMBER  1

  NUMBER OF EQUATIONS =     81552     NUMBER OF RHS =    2
  NUMBER OF FLOATING PT. OPERATIONS =  6.90E+09

     CHECK POINT   START OF SOLVER    

     CHECK POINT  END OF SOLVER       

       ELAPSED USER TIME (SEC)      =   1.1000    
       ELAPSED SYSTEM TIME (SEC)    =   0.0000    
       ELAPSED TOTAL CPU TIME (SEC) =   1.1000    
       ELAPSED WALLCLOCK TIME (SEC) =          1
 

 ***WARNING: THE SYSTEM MATRIX HAS 6 NEGATIVE EIGENVALUES.
             EXPLANATIONS ARE SUGGESTED AFTER THE FIRST OCCURRENCE OF THIS MESSAGE.

               CONVERGENCE CHECKS FOR EQUILIBRIUM ITERATION     1


 AVERAGE FORCE                       83.5       TIME AVG. FORCE        40.3    
 LARGEST RESIDUAL FORCE             -22.4       AT NODE        500   DOF  2
   INSTANCE: PART-1-1                                                                        
 LARGEST INCREMENT OF DISP.          1.52       AT NODE         38   DOF  2
   INSTANCE: PART-1-1                                                                        
 LARGEST CORRECTION TO DISP.         1.52       AT NODE         38   DOF  2
   INSTANCE: PART-1-1                                                                        
          FORCE     EQUILIBRIUM NOT ACHIEVED WITHIN TOLERANCE.

 AVERAGE MOMENT                      8.07       TIME AVG. MOMENT       1.80    
 LARGEST RESIDUAL MOMENT            -6.81       AT NODE      13573   DOF  5
   INSTANCE: PART-1-1                                                                        
 LARGEST INCREMENT OF ROTATION      1.375E-02   AT NODE       4872   DOF  6
   INSTANCE: PART-1-1                                                                        
 LARGEST CORRECTION TO ROTATION     1.375E-02   AT NODE       4872   DOF  6
   INSTANCE: PART-1-1                                                                        
          MOMENT    EQUILIBRIUM NOT ACHIEVED WITHIN TOLERANCE.

 COMPATIBILITY ERRORS:
    TYPE                NUMBER EXCEEDING TOLERANCE  MAXIMUM ERROR        IN ELEMENT
 COUPLING DISPLACEMENT               0                2.530E-07                  3
   INSTANCE: {assembly node}                                                                 
 COUPLING ROTATION                   0               -6.017E-07                  9
   INSTANCE: {assembly node}                                                                 

  NUMBER OF EQUATIONS =     81552     NUMBER OF RHS =    2
  NUMBER OF FLOATING PT. OPERATIONS =  6.90E+09

     CHECK POINT   START OF SOLVER    

     CHECK POINT  END OF SOLVER       

       ELAPSED USER TIME (SEC)      =   1.0000    
       ELAPSED SYSTEM TIME (SEC)    =   0.0000    
       ELAPSED TOTAL CPU TIME (SEC) =   1.0000    
       ELAPSED WALLCLOCK TIME (SEC) =          1
 

 ***WARNING: THE SYSTEM MATRIX HAS 6 NEGATIVE EIGENVALUES.
             EXPLANATIONS ARE SUGGESTED AFTER THE FIRST OCCURRENCE OF THIS MESSAGE.

               CONVERGENCE CHECKS FOR EQUILIBRIUM ITERATION     2


 AVERAGE FORCE                       83.6       TIME AVG. FORCE        40.3    
 LARGEST RESIDUAL FORCE            -3.943E-02   AT NODE       1299   DOF  2
   INSTANCE: PART-1-1                                                                        
 LARGEST INCREMENT OF DISP.          1.52       AT NODE         38   DOF  2
   INSTANCE: PART-1-1                                                                        
 LARGEST CORRECTION TO DISP.       -1.383E-02   AT NODE       8155   DOF  2
   INSTANCE: PART-1-1                                                                        
          THE FORCE     EQUILIBRIUM EQUATIONS HAVE CONVERGED

 AVERAGE MOMENT                      8.04       TIME AVG. MOMENT       1.80    
 LARGEST RESIDUAL MOMENT           -3.550E-02   AT NODE       4872   DOF  6
   INSTANCE: PART-1-1                                                                        
 LARGEST INCREMENT OF ROTATION      1.313E-02   AT NODE       4872   DOF  6
   INSTANCE: PART-1-1                                                                        
 LARGEST CORRECTION TO ROTATION     7.231E-04   AT NODE       8162   DOF  6
   INSTANCE: PART-1-1                                                                        
          MOMENT    EQUILIBRIUM NOT ACHIEVED WITHIN TOLERANCE.

 COMPATIBILITY ERRORS:
    TYPE                NUMBER EXCEEDING TOLERANCE  MAXIMUM ERROR        IN ELEMENT
 COUPLING DISPLACEMENT               0               -1.865E-11              13521
   INSTANCE: PART-1-1                                                                        
 COUPLING ROTATION                   0                5.749E-10                  9
   INSTANCE: {assembly node}                                                                 

  NUMBER OF EQUATIONS =     81552     NUMBER OF RHS =    2
  NUMBER OF FLOATING PT. OPERATIONS =  6.90E+09

     CHECK POINT   START OF SOLVER    

     CHECK POINT  END OF SOLVER       

       ELAPSED USER TIME (SEC)      =   1.1000    
       ELAPSED SYSTEM TIME (SEC)    =   0.0000    
       ELAPSED TOTAL CPU TIME (SEC) =   1.1000    
       ELAPSED WALLCLOCK TIME (SEC) =          2
 

 ***WARNING: THE SYSTEM MATRIX HAS 6 NEGATIVE EIGENVALUES.
             EXPLANATIONS ARE SUGGESTED AFTER THE FIRST OCCURRENCE OF THIS MESSAGE.

               CONVERGENCE CHECKS FOR EQUILIBRIUM ITERATION     3


 AVERAGE FORCE                       83.6       TIME AVG. FORCE        40.3    
 LARGEST RESIDUAL FORCE             6.945E-04   AT NODE       1252   DOF  2
   INSTANCE: PART-1-1                                                                        
 LARGEST INCREMENT OF DISP.          1.52       AT NODE         38   DOF  2
   INSTANCE: PART-1-1                                                                        
 LARGEST CORRECTION TO DISP.        2.566E-03   AT NODE      11214   DOF  1
   INSTANCE: PART-1-1                                                                        
          THE FORCE     EQUILIBRIUM EQUATIONS HAVE CONVERGED

 AVERAGE MOMENT                      8.04       TIME AVG. MOMENT       1.80    
 LARGEST RESIDUAL MOMENT            1.985E-03   AT NODE      13573   DOF  6
   INSTANCE: PART-1-1                                                                        
 LARGEST INCREMENT OF ROTATION      1.309E-02   AT NODE       4872   DOF  6
   INSTANCE: PART-1-1                                                                        
 LARGEST CORRECTION TO ROTATION     2.392E-04   AT NODE       1246   DOF  5
   INSTANCE: PART-1-1                                                                        
 ESTIMATE OF ROTATION CORRECTION   -1.338E-05
 MOMENT    EQUILIB. ACCEPTED BASED ON SMALL RESIDUAL AND ESTIMATED CORRECTION

 COMPATIBILITY ERRORS:
    TYPE                NUMBER EXCEEDING TOLERANCE  MAXIMUM ERROR        IN ELEMENT
 COUPLING DISPLACEMENT               0               -9.280E-14                  9
   INSTANCE: {assembly node}                                                                 
 COUPLING ROTATION                   0               -3.304E-11              13521
   INSTANCE: PART-1-1                                                                        

 ITERATION SUMMARY FOR THE INCREMENT:   3 TOTAL ITERATIONS, OF WHICH
   0 ARE SEVERE DISCONTINUITY ITERATIONS AND  3 ARE EQUILIBRIUM ITERATIONS.


                                INCREMENT    26 SUMMARY


     CURRENT LOAD PROPORTIONALITY FACTOR         0.9701    
     TOTAL ARC LENGTH    1.04    , INCREMENT OF ARC LENGTH   5.000E-02


  INCREMENT    27 STARTS. ATTEMPT NUMBER  1

  NUMBER OF EQUATIONS =     81552     NUMBER OF RHS =    2
  NUMBER OF FLOATING PT. OPERATIONS =  6.90E+09

     CHECK POINT   START OF SOLVER    

     CHECK POINT  END OF SOLVER       

       ELAPSED USER TIME (SEC)      =   1.1000    
       ELAPSED SYSTEM TIME (SEC)    =   0.0000    
       ELAPSED TOTAL CPU TIME (SEC) =   1.1000    
       ELAPSED WALLCLOCK TIME (SEC) =          1
 

 ***WARNING: THE SYSTEM MATRIX HAS 6 NEGATIVE EIGENVALUES.
             EXPLANATIONS ARE SUGGESTED AFTER THE FIRST OCCURRENCE OF THIS MESSAGE.

               CONVERGENCE CHECKS FOR EQUILIBRIUM ITERATION     1


 AVERAGE FORCE                       86.5       TIME AVG. FORCE        42.0    
 LARGEST RESIDUAL FORCE             -19.1       AT NODE        500   DOF  2
   INSTANCE: PART-1-1                                                                        
 LARGEST INCREMENT OF DISP.          1.52       AT NODE         38   DOF  2
   INSTANCE: PART-1-1                                                                        
 LARGEST CORRECTION TO DISP.         1.52       AT NODE         38   DOF  2
   INSTANCE: PART-1-1                                                                        
          FORCE     EQUILIBRIUM NOT ACHIEVED WITHIN TOLERANCE.

 AVERAGE MOMENT                      9.06       TIME AVG. MOMENT       2.07    
 LARGEST RESIDUAL MOMENT            -7.06       AT NODE      13573   DOF  5
   INSTANCE: PART-1-1                                                                        
 LARGEST INCREMENT OF ROTATION      1.246E-02   AT NODE       4872   DOF  6
   INSTANCE: PART-1-1                                                                        
 LARGEST CORRECTION TO ROTATION     1.246E-02   AT NODE       4872   DOF  6
   INSTANCE: PART-1-1                                                                        
          MOMENT    EQUILIBRIUM NOT ACHIEVED WITHIN TOLERANCE.

 COMPATIBILITY ERRORS:
    TYPE                NUMBER EXCEEDING TOLERANCE  MAXIMUM ERROR        IN ELEMENT
 COUPLING DISPLACEMENT               0                2.526E-07                  3
   INSTANCE: {assembly node}                                                                 
 COUPLING ROTATION                   0               -5.895E-07                  9
   INSTANCE: {assembly node}                                                                 

  NUMBER OF EQUATIONS =     81552     NUMBER OF RHS =    2
  NUMBER OF FLOATING PT. OPERATIONS =  6.90E+09

     CHECK POINT   START OF SOLVER    

     CHECK POINT  END OF SOLVER       

       ELAPSED USER TIME (SEC)      =   1.1000    
       ELAPSED SYSTEM TIME (SEC)    =   0.0000    
       ELAPSED TOTAL CPU TIME (SEC) =   1.1000    
       ELAPSED WALLCLOCK TIME (SEC) =          2
 

 ***WARNING: THE SYSTEM MATRIX HAS 6 NEGATIVE EIGENVALUES.
             EXPLANATIONS ARE SUGGESTED AFTER THE FIRST OCCURRENCE OF THIS MESSAGE.

               CONVERGENCE CHECKS FOR EQUILIBRIUM ITERATION     2


 AVERAGE FORCE                       86.6       TIME AVG. FORCE        42.0    
 LARGEST RESIDUAL FORCE            -2.487E-02   AT NODE       1299   DOF  2
   INSTANCE: PART-1-1                                                                        
 LARGEST INCREMENT OF DISP.          1.52       AT NODE         38   DOF  2
   INSTANCE: PART-1-1                                                                        
 LARGEST CORRECTION TO DISP.       -1.101E-02   AT NODE       8155   DOF  2
   INSTANCE: PART-1-1                                                                        
          THE FORCE     EQUILIBRIUM EQUATIONS HAVE CONVERGED

 AVERAGE MOMENT                      9.04       TIME AVG. MOMENT       2.07    
 LARGEST RESIDUAL MOMENT           -2.994E-02   AT NODE       4872   DOF  6
   INSTANCE: PART-1-1                                                                        
 LARGEST INCREMENT OF ROTATION      1.202E-02   AT NODE       4884   DOF  6
   INSTANCE: PART-1-1                                                                        
 LARGEST CORRECTION TO ROTATION    -5.794E-04   AT NODE       8159   DOF  6
   INSTANCE: PART-1-1                                                                        
          MOMENT    EQUILIBRIUM NOT ACHIEVED WITHIN TOLERANCE.

 COMPATIBILITY ERRORS:
    TYPE                NUMBER EXCEEDING TOLERANCE  MAXIMUM ERROR        IN ELEMENT
 COUPLING DISPLACEMENT               0               -1.447E-11              13521
   INSTANCE: PART-1-1                                                                        
 COUPLING ROTATION                   0                5.651E-10                  9
   INSTANCE: {assembly node}                                                                 

  NUMBER OF EQUATIONS =     81552     NUMBER OF RHS =    2
  NUMBER OF FLOATING PT. OPERATIONS =  6.90E+09

     CHECK POINT   START OF SOLVER    

     CHECK POINT  END OF SOLVER       

       ELAPSED USER TIME (SEC)      =   1.1000    
       ELAPSED SYSTEM TIME (SEC)    =   0.0000    
       ELAPSED TOTAL CPU TIME (SEC) =   1.1000    
       ELAPSED WALLCLOCK TIME (SEC) =          1
 

 ***WARNING: THE SYSTEM MATRIX HAS 6 NEGATIVE EIGENVALUES.
             EXPLANATIONS ARE SUGGESTED AFTER THE FIRST OCCURRENCE OF THIS MESSAGE.

               CONVERGENCE CHECKS FOR EQUILIBRIUM ITERATION     3


 AVERAGE FORCE                       86.6       TIME AVG. FORCE        42.0    
 LARGEST RESIDUAL FORCE             1.933E-04   AT NODE       4770   DOF  3
   INSTANCE: PART-1-1                                                                        
 LARGEST INCREMENT OF DISP.          1.52       AT NODE         38   DOF  2
   INSTANCE: PART-1-1                                                                        
 LARGEST CORRECTION TO DISP.        6.116E-04   AT NODE      11239   DOF  1
   INSTANCE: PART-1-1                                                                        
          THE FORCE     EQUILIBRIUM EQUATIONS HAVE CONVERGED

 AVERAGE MOMENT                      9.04       TIME AVG. MOMENT       2.07    
 LARGEST RESIDUAL MOMENT           -8.861E-04   AT NODE       8098   DOF  5
   INSTANCE: PART-1-1                                                                        
 LARGEST INCREMENT OF ROTATION      1.199E-02   AT NODE       4884   DOF  6
   INSTANCE: PART-1-1                                                                        
 LARGEST CORRECTION TO ROTATION    -5.795E-05   AT NODE      11274   DOF  5
   INSTANCE: PART-1-1                                                                        
          THE MOMENT    EQUILIBRIUM EQUATIONS HAVE CONVERGED

 COMPATIBILITY ERRORS:
    TYPE                NUMBER EXCEEDING TOLERANCE  MAXIMUM ERROR        IN ELEMENT
 COUPLING DISPLACEMENT               0               -4.358E-14                  7
   INSTANCE: {assembly node}                                                                 
 COUPLING ROTATION                   0               -5.976E-12              13521
   INSTANCE: PART-1-1                                                                        

 ITERATION SUMMARY FOR THE INCREMENT:   3 TOTAL ITERATIONS, OF WHICH
   0 ARE SEVERE DISCONTINUITY ITERATIONS AND  3 ARE EQUILIBRIUM ITERATIONS.


                                INCREMENT    27 SUMMARY


     CURRENT LOAD PROPORTIONALITY FACTOR          1.003    
     TOTAL ARC LENGTH    1.09    , INCREMENT OF ARC LENGTH   5.000E-02

     LOAD PROPORTIONALITY FACTOR NOW EXCEEDS THE MAXIMUM VALUE SPECIFIED
     THE STEP ENDS AT THIS INCREMENT


          THE ANALYSIS HAS BEEN COMPLETED



     ANALYSIS SUMMARY:
     TOTAL OF         27  INCREMENTS
                       1  CUTBACKS IN AUTOMATIC INCREMENTATION
                      85  ITERATIONS INCLUDING CONTACT ITERATIONS IF PRESENT
                      85  PASSES THROUGH THE EQUATION SOLVER OF WHICH 
                      85  INVOLVE MATRIX DECOMPOSITION, INCLUDING
                       0  DECOMPOSITION(S) OF THE MASS MATRIX
                       1  REORDERING OF EQUATIONS TO MINIMIZE WAVEFRONT
                       0  ADDITIONAL RESIDUAL EVALUATIONS FOR LINE SEARCHES
                       0  ADDITIONAL OPERATOR EVALUATIONS FOR LINE SEARCHES
                       5  WARNING MESSAGES DURING USER INPUT PROCESSING
                      58  WARNING MESSAGES DURING ANALYSIS
                       0  ANALYSIS WARNINGS ARE NUMERICAL PROBLEM MESSAGES
                      58  ANALYSIS WARNINGS ARE NEGATIVE EIGENVALUE MESSAGES
                       0  ERROR MESSAGES



     JOB TIME SUMMARY
       USER TIME (SEC)      =   296.10    
       SYSTEM TIME (SEC)    =   5.8000    
       TOTAL CPU TIME (SEC) =   301.90    
       WALLCLOCK TIME (SEC) =        340
